MODEL 1
REMARK VINA RESULT:      -8.1      0.000      0.000
REMARK  8 active torsions:
REMARK  status: ('A' for Active; 'I' for Inactive)
REMARK    1  A    between atoms: N1_1  and  C2_2 
REMARK    2  A    between atoms: C2_2  and  C3_3 
REMARK    3  A    between atoms: C6_6  and  N7_7 
REMARK       I    between atoms: N7_7  and  C8_8 
REMARK    4  A    between atoms: C8_8  and  C10_10 
REMARK    5  A    between atoms: C12_12  and  N13_13 
REMARK    6  A    between atoms: N13_13  and  C14_14 
REMARK    7  A    between atoms: C22_22  and  C27_27 
REMARK    8  A    between atoms: C27_27  and  N28_28 
ROOT
ATOM      1  C10 UI1 d          23.118  15.897  32.525  0.00  0.00     0.035 A 
ATOM      2  C11 UI1 d          23.580  16.997  33.284  0.00  0.00    -0.041 A 
ATOM      3  C12 UI1 d          22.702  17.971  33.703  0.00  0.00     0.061 A 
ATOM      4  C20 UI1 d          21.309  17.865  33.372  0.00  0.00     0.002 A 
ATOM      5  C21 UI1 d          20.419  18.884  33.790  0.00  0.00    -0.057 A 
ATOM      6  C22 UI1 d          19.044  18.798  33.479  0.00  0.00     0.008 A 
ATOM      7  C23 UI1 d          18.546  17.696  32.758  0.00  0.00    -0.069 A 
ATOM      8  C24 UI1 d          19.432  16.676  32.333  0.00  0.00    -0.071 A 
ATOM      9  C25 UI1 d          20.822  16.764  32.636  0.00  0.00    -0.023 A 
ATOM     10  C26 UI1 d          21.729  15.771  32.201  0.00  0.00    -0.057 A 
ATOM     11  H9  UI1 d          24.631  17.073  33.538  0.00  0.00     0.088 H 
ATOM     12  H14 UI1 d          20.794  19.733  34.350  0.00  0.00     0.086 H 
ATOM     13  H15 UI1 d          17.489  17.629  32.529  0.00  0.00     0.085 H 
ATOM     14  H16 UI1 d          19.052  15.827  31.776  0.00  0.00     0.084 H 
ATOM     15  H17 UI1 d          21.376  14.921  31.628  0.00  0.00     0.086 H 
ENDROOT
BRANCH   1  16
ATOM     16  C8  UI1 d          24.141  14.925  32.032  0.00  0.00     0.256 C 
ATOM     17  N7  UI1 d          25.231  15.397  31.456  0.00  0.00    -0.323 N 
ATOM     18  H8  UI1 d          25.298  16.377  31.264  0.00  0.00     0.169 HD
ATOM     19  O9  UI1 d          23.994  13.725  32.230  0.00  0.00    -0.267 OA
BRANCH  17  20
ATOM     20  C6  UI1 d          26.324  14.530  31.098  0.00  0.00     0.035 A 
ATOM     21  C5  UI1 d          26.216  13.989  29.779  0.00  0.00    -0.057 A 
ATOM     22  C4  UI1 d          27.182  13.109  29.269  0.00  0.00    -0.073 A 
ATOM     23  H7  UI1 d          25.370  14.265  29.159  0.00  0.00     0.086 H 
ATOM     24  C3  UI1 d          28.280  12.752  30.068  0.00  0.00    -0.033 A 
ATOM     25  H6  UI1 d          27.081  12.708  28.267  0.00  0.00     0.084 H 
ATOM     26  C31 UI1 d          28.401  13.281  31.380  0.00  0.00    -0.073 A 
ATOM     27  C30 UI1 d          27.412  14.174  31.903  0.00  0.00    -0.057 A 
ATOM     28  H23 UI1 d          29.251  13.004  31.993  0.00  0.00     0.084 H 
ATOM     29  H22 UI1 d          27.505  14.570  32.908  0.00  0.00     0.086 H 
BRANCH  24  30
ATOM     30  C2  UI1 d          29.337  11.784  29.514  0.00  0.00     0.103 C 
ATOM     31  H4  UI1 d          29.796  12.230  28.619  0.00  0.00     0.082 H 
ATOM     32  H5  UI1 d          30.109  11.621  30.280  0.00  0.00     0.082 H 
BRANCH  30  33
ATOM     33  N1  UI1 d          28.746  10.502  29.155  0.00  0.00    -0.075 N 
ATOM     34  H1  UI1 d          28.589  10.472  28.159  0.00  0.00     0.274 HD
ATOM     35  H2  UI1 d          27.867  10.390  29.637  0.00  0.00     0.274 HD
ATOM     36  H3  UI1 d          29.372   9.758  29.419  0.00  0.00     0.274 HD
ENDBRANCH  30  33
ENDBRANCH  24  30
ENDBRANCH  17  20
ENDBRANCH   1  16
BRANCH   3  37
ATOM     37  N13 UI1 d          23.216  19.109  34.418  0.00  0.00    -0.187 N 
ATOM     38  H10 UI1 d          22.551  19.838  34.715  0.00  0.00     0.184 HD
BRANCH  37  39
ATOM     39  C14 UI1 d          24.588  19.283  34.737  0.00  0.00     0.726 A 
ATOM     40  N15 UI1 d          25.026  18.843  35.941  0.00  0.00    -0.075 NA
ATOM     41  C16 UI1 d          26.326  18.964  36.291  0.00  0.00     0.022 A 
ATOM     42  C17 UI1 d          27.241  19.548  35.389  0.00  0.00    -0.048 A 
ATOM     43  H11 UI1 d          26.664  18.614  37.260  0.00  0.00     0.115 H 
ATOM     44  C18 UI1 d          26.753  19.998  34.154  0.00  0.00     0.022 A 
ATOM     45  H12 UI1 d          28.290  19.647  35.645  0.00  0.00     0.087 H 
ATOM     46  N19 UI1 d          25.439  19.853  33.856  0.00  0.00    -0.075 NA
ATOM     47  H13 UI1 d          27.425  20.459  33.439  0.00  0.00     0.115 H 
ENDBRANCH  37  39
ENDBRANCH   3  37
BRANCH   6  48
ATOM     48  C27 UI1 d          18.172  19.901  33.947  0.00  0.00     0.102 C 
ATOM     49  N29 UI1 d          18.690  21.062  34.328  0.00  0.00    -0.385 N 
ATOM     50  H20 UI1 d          19.710  21.205  34.301  0.00  0.00     0.157 HD
ATOM     51  H21 UI1 d          18.072  21.820  34.651  0.00  0.00     0.157 HD
BRANCH  48  52
ATOM     52  N28 UI1 d          16.881  19.734  33.986  0.00  0.00    -0.385 N 
ATOM     53  H18 UI1 d          16.376  19.415  33.146  0.00  0.00     0.157 HD
ATOM     54  H19 UI1 d          16.364  19.920  34.857  0.00  0.00     0.157 HD
ENDBRANCH  48  52
ENDBRANCH   6  48
TORSDOF 8
ENDMDL
MODEL 2
REMARK VINA RESULT:      -7.9      1.667      2.171
REMARK  8 active torsions:
REMARK  status: ('A' for Active; 'I' for Inactive)
REMARK    1  A    between atoms: N1_1  and  C2_2 
REMARK    2  A    between atoms: C2_2  and  C3_3 
REMARK    3  A    between atoms: C6_6  and  N7_7 
REMARK       I    between atoms: N7_7  and  C8_8 
REMARK    4  A    between atoms: C8_8  and  C10_10 
REMARK    5  A    between atoms: C12_12  and  N13_13 
REMARK    6  A    between atoms: N13_13  and  C14_14 
REMARK    7  A    between atoms: C22_22  and  C27_27 
REMARK    8  A    between atoms: C27_27  and  N28_28 
ROOT
ATOM      1  C10 UI1 d          23.124  15.778  33.406  0.00  0.00     0.035 A 
ATOM      2  C11 UI1 d          23.575  17.038  33.862  0.00  0.00    -0.041 A 
ATOM      3  C12 UI1 d          22.683  18.067  34.057  0.00  0.00     0.061 A 
ATOM      4  C20 UI1 d          21.285  17.857  33.803  0.00  0.00     0.002 A 
ATOM      5  C21 UI1 d          20.379  18.929  33.987  0.00  0.00    -0.057 A 
ATOM      6  C22 UI1 d          19.000  18.744  33.747  0.00  0.00     0.008 A 
ATOM      7  C23 UI1 d          18.514  17.490  33.329  0.00  0.00    -0.069 A 
ATOM      8  C24 UI1 d          19.416  16.415  33.137  0.00  0.00    -0.071 A 
ATOM      9  C25 UI1 d          20.810  16.601  33.370  0.00  0.00    -0.023 A 
ATOM     10  C26 UI1 d          21.731  15.550  33.162  0.00  0.00    -0.057 A 
ATOM     11  H9  UI1 d          24.630  17.194  34.059  0.00  0.00     0.088 H 
ATOM     12  H14 UI1 d          20.746  19.896  34.314  0.00  0.00     0.086 H 
ATOM     13  H15 UI1 d          17.454  17.349  33.153  0.00  0.00     0.085 H 
ATOM     14  H16 UI1 d          19.045  15.449  32.814  0.00  0.00     0.084 H 
ATOM     15  H17 UI1 d          21.387  14.580  32.823  0.00  0.00     0.086 H 
ENDROOT
BRANCH   1  16
ATOM     16  C8  UI1 d          24.161  14.735  33.133  0.00  0.00     0.256 C 
ATOM     17  N7  UI1 d          25.432  15.067  33.252  0.00  0.00    -0.323 N 
ATOM     18  H8  UI1 d          25.676  16.024  33.412  0.00  0.00     0.169 HD
ATOM     19  O9  UI1 d          23.822  13.585  32.878  0.00  0.00    -0.267 OA
BRANCH  17  20
ATOM     20  C6  UI1 d          26.476  14.078  33.155  0.00  0.00     0.035 A 
ATOM     21  C5  UI1 d          26.891  13.559  34.421  0.00  0.00    -0.057 A 
ATOM     22  C4  UI1 d          27.910  12.600  34.518  0.00  0.00    -0.073 A 
ATOM     23  H7  UI1 d          26.408  13.914  35.325  0.00  0.00     0.086 H 
ATOM     24  C3  UI1 d          28.535  12.137  33.349  0.00  0.00    -0.033 A 
ATOM     25  H6  UI1 d          28.212  12.221  35.488  0.00  0.00     0.084 H 
ATOM     26  C31 UI1 d          28.134  12.643  32.085  0.00  0.00    -0.073 A 
ATOM     27  C30 UI1 d          27.098  13.626  31.986  0.00  0.00    -0.057 A 
ATOM     28  H23 UI1 d          28.617  12.281  31.185  0.00  0.00     0.084 H 
ATOM     29  H22 UI1 d          26.799  14.013  31.018  0.00  0.00     0.086 H 
BRANCH  24  30
ATOM     30  C2  UI1 d          29.655  11.090  33.454  0.00  0.00     0.103 C 
ATOM     31  H4  UI1 d          29.205  10.088  33.500  0.00  0.00     0.082 H 
ATOM     32  H5  UI1 d          30.297  11.164  32.564  0.00  0.00     0.082 H 
BRANCH  30  33
ATOM     33  N1  UI1 d          30.468  11.301  34.644  0.00  0.00    -0.075 N 
ATOM     34  H1  UI1 d          31.437  11.127  34.425  0.00  0.00     0.274 HD
ATOM     35  H2  UI1 d          30.170  10.669  35.371  0.00  0.00     0.274 HD
ATOM     36  H3  UI1 d          30.361  12.252  34.960  0.00  0.00     0.274 HD
ENDBRANCH  30  33
ENDBRANCH  24  30
ENDBRANCH  17  20
ENDBRANCH   1  16
BRANCH   3  37
ATOM     37  N13 UI1 d          23.183  19.355  34.461  0.00  0.00    -0.187 N 
ATOM     38  H10 UI1 d          22.646  20.192  34.193  0.00  0.00     0.184 HD
BRANCH  37  39
ATOM     39  C14 UI1 d          24.377  19.535  35.207  0.00  0.00     0.726 A 
ATOM     40  N15 UI1 d          24.275  19.689  36.549  0.00  0.00    -0.075 NA
ATOM     41  C16 UI1 d          25.378  19.845  37.314  0.00  0.00     0.022 A 
ATOM     42  C17 UI1 d          26.654  19.839  36.710  0.00  0.00    -0.048 A 
ATOM     43  H11 UI1 d          25.285  19.975  38.386  0.00  0.00     0.115 H 
ATOM     44  C18 UI1 d          26.723  19.682  35.318  0.00  0.00     0.022 A 
ATOM     45  H12 UI1 d          27.553  19.952  37.304  0.00  0.00     0.087 H 
ATOM     46  N19 UI1 d          25.584  19.532  34.600  0.00  0.00    -0.075 NA
ATOM     47  H13 UI1 d          27.685  19.680  34.818  0.00  0.00     0.115 H 
ENDBRANCH  37  39
ENDBRANCH   3  37
BRANCH   6  48
ATOM     48  C27 UI1 d          18.111  19.911  33.958  0.00  0.00     0.102 C 
ATOM     49  N29 UI1 d          16.793  19.766  33.975  0.00  0.00    -0.385 N 
ATOM     50  H20 UI1 d          16.375  18.834  33.842  0.00  0.00     0.157 HD
ATOM     51  H21 UI1 d          16.187  20.586  34.123  0.00  0.00     0.157 HD
BRANCH  48  52
ATOM     52  N28 UI1 d          18.627  21.095  34.128  0.00  0.00    -0.385 N 
ATOM     53  H18 UI1 d          18.014  21.903  34.308  0.00  0.00     0.157 HD
ATOM     54  H19 UI1 d          19.648  21.224  34.083  0.00  0.00     0.157 HD
ENDBRANCH  48  52
ENDBRANCH   6  48
TORSDOF 8
ENDMDL
MODEL 3
REMARK VINA RESULT:      -7.3      2.680      9.669
REMARK  8 active torsions:
REMARK  status: ('A' for Active; 'I' for Inactive)
REMARK    1  A    between atoms: N1_1  and  C2_2 
REMARK    2  A    between atoms: C2_2  and  C3_3 
REMARK    3  A    between atoms: C6_6  and  N7_7 
REMARK       I    between atoms: N7_7  and  C8_8 
REMARK    4  A    between atoms: C8_8  and  C10_10 
REMARK    5  A    between atoms: C12_12  and  N13_13 
REMARK    6  A    between atoms: N13_13  and  C14_14 
REMARK    7  A    between atoms: C22_22  and  C27_27 
REMARK    8  A    between atoms: C27_27  and  N28_28 
ROOT
ATOM      1  C10 UI1 d          24.902  15.169  30.904  0.00  0.00     0.035 A 
ATOM      2  C11 UI1 d          24.809  13.815  31.299  0.00  0.00    -0.041 A 
ATOM      3  C12 UI1 d          25.786  12.917  30.936  0.00  0.00     0.061 A 
ATOM      4  C20 UI1 d          26.910  13.360  30.159  0.00  0.00     0.002 A 
ATOM      5  C21 UI1 d          27.898  12.422  29.775  0.00  0.00    -0.057 A 
ATOM      6  C22 UI1 d          29.014  12.835  29.014  0.00  0.00     0.008 A 
ATOM      7  C23 UI1 d          29.155  14.185  28.638  0.00  0.00    -0.069 A 
ATOM      8  C24 UI1 d          28.168  15.128  29.016  0.00  0.00    -0.071 A 
ATOM      9  C25 UI1 d          27.035  14.711  29.775  0.00  0.00    -0.023 A 
ATOM     10  C26 UI1 d          26.025  15.629  30.142  0.00  0.00    -0.057 A 
ATOM     11  H9  UI1 d          23.963  13.483  31.890  0.00  0.00     0.088 H 
ATOM     12  H14 UI1 d          27.798  11.382  30.065  0.00  0.00     0.086 H 
ATOM     13  H15 UI1 d          30.017  14.502  28.062  0.00  0.00     0.085 H 
ATOM     14  H16 UI1 d          28.273  16.167  28.726  0.00  0.00     0.084 H 
ATOM     15  H17 UI1 d          26.099  16.670  29.850  0.00  0.00     0.086 H 
ENDROOT
BRANCH   1  16
ATOM     16  C8  UI1 d          23.761  16.068  31.260  0.00  0.00     0.256 C 
ATOM     17  N7  UI1 d          22.956  15.704  32.239  0.00  0.00    -0.323 N 
ATOM     18  H8  UI1 d          23.058  14.795  32.645  0.00  0.00     0.169 HD
ATOM     19  O9  UI1 d          23.632  17.149  30.696  0.00  0.00    -0.267 OA
BRANCH  17  20
ATOM     20  C6  UI1 d          21.933  16.589  32.736  0.00  0.00     0.035 A 
ATOM     21  C5  UI1 d          20.634  16.315  32.206  0.00  0.00    -0.057 A 
ATOM     22  C4  UI1 d          19.521  17.091  32.565  0.00  0.00    -0.073 A 
ATOM     23  H7  UI1 d          20.505  15.492  31.513  0.00  0.00     0.086 H 
ATOM     24  C3  UI1 d          19.684  18.156  33.465  0.00  0.00    -0.033 A 
ATOM     25  H6  UI1 d          18.544  16.868  32.151  0.00  0.00     0.084 H 
ATOM     26  C31 UI1 d          20.968  18.440  33.999  0.00  0.00    -0.073 A 
ATOM     27  C30 UI1 d          22.105  17.653  33.629  0.00  0.00    -0.057 A 
ATOM     28  H23 UI1 d          21.089  19.262  34.695  0.00  0.00     0.084 H 
ATOM     29  H22 UI1 d          23.085  17.878  34.035  0.00  0.00     0.086 H 
BRANCH  24  30
ATOM     30  C2  UI1 d          18.467  19.009  33.855  0.00  0.00     0.103 C 
ATOM     31  H4  UI1 d          18.049  19.473  32.950  0.00  0.00     0.082 H 
ATOM     32  H5  UI1 d          17.710  18.361  34.319  0.00  0.00     0.082 H 
BRANCH  30  33
ATOM     33  N1  UI1 d          18.835  20.057  34.798  0.00  0.00    -0.075 N 
ATOM     34  H1  UI1 d          18.433  20.933  34.501  0.00  0.00     0.274 HD
ATOM     35  H2  UI1 d          19.839  20.143  34.831  0.00  0.00     0.274 HD
ATOM     36  H3  UI1 d          18.487  19.822  35.714  0.00  0.00     0.274 HD
ENDBRANCH  30  33
ENDBRANCH  24  30
ENDBRANCH  17  20
ENDBRANCH   1  16
BRANCH   3  37
ATOM     37  N13 UI1 d          25.628  11.532  31.299  0.00  0.00    -0.187 N 
ATOM     38  H10 UI1 d          26.002  10.816  30.661  0.00  0.00     0.184 HD
BRANCH  37  39
ATOM     39  C14 UI1 d          24.986  11.101  32.489  0.00  0.00     0.726 A 
ATOM     40  N15 UI1 d          25.743  10.933  33.600  0.00  0.00    -0.075 NA
ATOM     41  C16 UI1 d          25.183  10.542  34.767  0.00  0.00     0.022 A 
ATOM     42  C17 UI1 d          23.791  10.315  34.832  0.00  0.00    -0.048 A 
ATOM     43  H11 UI1 d          25.799  10.403  35.647  0.00  0.00     0.115 H 
ATOM     44  C18 UI1 d          23.038  10.494  33.663  0.00  0.00     0.022 A 
ATOM     45  H12 UI1 d          23.319  10.011  35.760  0.00  0.00     0.087 H 
ATOM     46  N19 UI1 d          23.653  10.884  32.520  0.00  0.00    -0.075 NA
ATOM     47  H13 UI1 d          21.968  10.321  33.673  0.00  0.00     0.115 H 
ENDBRANCH  37  39
ENDBRANCH   3  37
BRANCH   6  48
ATOM     48  C27 UI1 d          30.007  11.800  28.646  0.00  0.00     0.102 C 
ATOM     49  N29 UI1 d          30.418  11.669  27.392  0.00  0.00    -0.385 N 
ATOM     50  H20 UI1 d          30.047  12.292  26.660  0.00  0.00     0.157 HD
ATOM     51  H21 UI1 d          31.109  10.944  27.150  0.00  0.00     0.157 HD
BRANCH  48  52
ATOM     52  N28 UI1 d          30.484  11.005  29.562  0.00  0.00    -0.385 N 
ATOM     53  H18 UI1 d          30.779  10.050  29.313  0.00  0.00     0.157 HD
ATOM     54  H19 UI1 d          30.567  11.332  30.535  0.00  0.00     0.157 HD
ENDBRANCH  48  52
ENDBRANCH   6  48
TORSDOF 8
ENDMDL
MODEL 4
REMARK VINA RESULT:      -7.2      2.515      8.986
REMARK  8 active torsions:
REMARK  status: ('A' for Active; 'I' for Inactive)
REMARK    1  A    between atoms: N1_1  and  C2_2 
REMARK    2  A    between atoms: C2_2  and  C3_3 
REMARK    3  A    between atoms: C6_6  and  N7_7 
REMARK       I    between atoms: N7_7  and  C8_8 
REMARK    4  A    between atoms: C8_8  and  C10_10 
REMARK    5  A    between atoms: C12_12  and  N13_13 
REMARK    6  A    between atoms: N13_13  and  C14_14 
REMARK    7  A    between atoms: C22_22  and  C27_27 
REMARK    8  A    between atoms: C27_27  and  N28_28 
ROOT
ATOM      1  C10 UI1 d          23.610  14.342  32.115  0.00  0.00     0.035 A 
ATOM      2  C11 UI1 d          24.431  14.997  31.169  0.00  0.00    -0.041 A 
ATOM      3  C12 UI1 d          25.561  14.379  30.682  0.00  0.00     0.061 A 
ATOM      4  C20 UI1 d          25.902  13.059  31.133  0.00  0.00     0.002 A 
ATOM      5  C21 UI1 d          27.078  12.442  30.642  0.00  0.00    -0.057 A 
ATOM      6  C22 UI1 d          27.431  11.144  31.068  0.00  0.00     0.008 A 
ATOM      7  C23 UI1 d          26.613  10.449  31.980  0.00  0.00    -0.069 A 
ATOM      8  C24 UI1 d          25.438  11.062  32.480  0.00  0.00    -0.071 A 
ATOM      9  C25 UI1 d          25.084  12.377  32.059  0.00  0.00    -0.023 A 
ATOM     10  C26 UI1 d          23.930  13.019  32.562  0.00  0.00    -0.057 A 
ATOM     11  H9  UI1 d          24.170  15.991  30.825  0.00  0.00     0.088 H 
ATOM     12  H14 UI1 d          27.709  12.969  29.935  0.00  0.00     0.086 H 
ATOM     13  H15 UI1 d          26.882   9.448  32.299  0.00  0.00     0.085 H 
ATOM     14  H16 UI1 d          24.808  10.530  33.184  0.00  0.00     0.084 H 
ATOM     15  H17 UI1 d          23.293  12.515  33.280  0.00  0.00     0.086 H 
ENDROOT
BRANCH   1  16
ATOM     16  C8  UI1 d          22.449  15.108  32.664  0.00  0.00     0.256 C 
ATOM     17  N7  UI1 d          22.173  16.289  32.143  0.00  0.00    -0.323 N 
ATOM     18  H8  UI1 d          22.803  16.691  31.478  0.00  0.00     0.169 HD
ATOM     19  O9  UI1 d          21.736  14.608  33.525  0.00  0.00    -0.267 OA
BRANCH  17  20
ATOM     20  C6  UI1 d          20.983  17.011  32.516  0.00  0.00     0.035 A 
ATOM     21  C5  UI1 d          21.239  18.147  33.345  0.00  0.00    -0.057 A 
ATOM     22  C4  UI1 d          20.195  18.955  33.818  0.00  0.00    -0.073 A 
ATOM     23  H7  UI1 d          22.261  18.389  33.613  0.00  0.00     0.086 H 
ATOM     24  C3  UI1 d          18.870  18.646  33.469  0.00  0.00    -0.033 A 
ATOM     25  H6  UI1 d          20.409  19.812  34.447  0.00  0.00     0.084 H 
ATOM     26  C31 UI1 d          18.601  17.521  32.647  0.00  0.00    -0.073 A 
ATOM     27  C30 UI1 d          19.665  16.692  32.169  0.00  0.00    -0.057 A 
ATOM     28  H23 UI1 d          17.577  17.286  32.378  0.00  0.00     0.084 H 
ATOM     29  H22 UI1 d          19.453  15.830  31.546  0.00  0.00     0.086 H 
BRANCH  24  30
ATOM     30  C2  UI1 d          17.725  19.527  33.991  0.00  0.00     0.103 C 
ATOM     31  H4  UI1 d          16.832  19.356  33.372  0.00  0.00     0.082 H 
ATOM     32  H5  UI1 d          17.508  19.252  35.033  0.00  0.00     0.082 H 
BRANCH  30  33
ATOM     33  N1  UI1 d          18.076  20.940  33.936  0.00  0.00    -0.075 N 
ATOM     34  H1  UI1 d          19.079  21.039  33.975  0.00  0.00     0.274 HD
ATOM     35  H2  UI1 d          17.661  21.420  34.720  0.00  0.00     0.274 HD
ATOM     36  H3  UI1 d          17.732  21.339  33.076  0.00  0.00     0.274 HD
ENDBRANCH  30  33
ENDBRANCH  24  30
ENDBRANCH  17  20
ENDBRANCH   1  16
BRANCH   3  37
ATOM     37  N13 UI1 d          26.409  15.099  29.769  0.00  0.00    -0.187 N 
ATOM     38  H10 UI1 d          26.721  14.620  28.913  0.00  0.00     0.184 HD
BRANCH  37  39
ATOM     39  C14 UI1 d          26.839  16.435  29.984  0.00  0.00     0.726 A 
ATOM     40  N15 UI1 d          26.181  17.430  29.342  0.00  0.00    -0.075 NA
ATOM     41  C16 UI1 d          26.534  18.722  29.522  0.00  0.00     0.022 A 
ATOM     42  C17 UI1 d          27.594  19.041  30.398  0.00  0.00    -0.048 A 
ATOM     43  H11 UI1 d          26.005  19.510  28.998  0.00  0.00     0.115 H 
ATOM     44  C18 UI1 d          28.257  17.987  31.043  0.00  0.00     0.022 A 
ATOM     45  H12 UI1 d          27.888  20.071  30.566  0.00  0.00     0.087 H 
ATOM     46  N19 UI1 d          27.863  16.710  30.822  0.00  0.00    -0.075 NA
ATOM     47  H13 UI1 d          29.081  18.193  31.716  0.00  0.00     0.115 H 
ENDBRANCH  37  39
ENDBRANCH   3  37
BRANCH   6  48
ATOM     48  C27 UI1 d          28.676  10.561  30.514  0.00  0.00     0.102 C 
ATOM     49  N29 UI1 d          29.714  10.305  31.298  0.00  0.00    -0.385 N 
ATOM     50  H20 UI1 d          29.661  10.510  32.306  0.00  0.00     0.157 HD
ATOM     51  H21 UI1 d          30.573   9.901  30.899  0.00  0.00     0.157 HD
BRANCH  48  52
ATOM     52  N28 UI1 d          28.756  10.297  29.240  0.00  0.00    -0.385 N 
ATOM     53  H18 UI1 d          28.456   9.377  28.885  0.00  0.00     0.157 HD
ATOM     54  H19 UI1 d          29.119  11.007  28.589  0.00  0.00     0.157 HD
ENDBRANCH  48  52
ENDBRANCH   6  48
TORSDOF 8
ENDMDL
MODEL 5
REMARK VINA RESULT:      -6.7      2.688      8.968
REMARK  8 active torsions:
REMARK  status: ('A' for Active; 'I' for Inactive)
REMARK    1  A    between atoms: N1_1  and  C2_2 
REMARK    2  A    between atoms: C2_2  and  C3_3 
REMARK    3  A    between atoms: C6_6  and  N7_7 
REMARK       I    between atoms: N7_7  and  C8_8 
REMARK    4  A    between atoms: C8_8  and  C10_10 
REMARK    5  A    between atoms: C12_12  and  N13_13 
REMARK    6  A    between atoms: N13_13  and  C14_14 
REMARK    7  A    between atoms: C22_22  and  C27_27 
REMARK    8  A    between atoms: C27_27  and  N28_28 
ROOT
ATOM      1  C10 UI1 d          23.764  14.722  31.856  0.00  0.00     0.035 A 
ATOM      2  C11 UI1 d          24.793  14.968  30.918  0.00  0.00    -0.041 A 
ATOM      3  C12 UI1 d          25.946  14.217  30.939  0.00  0.00     0.061 A 
ATOM      4  C20 UI1 d          26.100  13.174  31.914  0.00  0.00     0.002 A 
ATOM      5  C21 UI1 d          27.300  12.422  31.938  0.00  0.00    -0.057 A 
ATOM      6  C22 UI1 d          27.473  11.389  32.885  0.00  0.00     0.008 A 
ATOM      7  C23 UI1 d          26.451  11.094  33.808  0.00  0.00    -0.069 A 
ATOM      8  C24 UI1 d          25.250  11.846  33.792  0.00  0.00    -0.071 A 
ATOM      9  C25 UI1 d          25.077  12.896  32.844  0.00  0.00    -0.023 A 
ATOM     10  C26 UI1 d          23.898  13.675  32.824  0.00  0.00    -0.057 A 
ATOM     11  H9  UI1 d          24.672  15.752  30.180  0.00  0.00     0.088 H 
ATOM     12  H14 UI1 d          28.089  12.641  31.227  0.00  0.00     0.086 H 
ATOM     13  H15 UI1 d          26.582  10.295  34.528  0.00  0.00     0.085 H 
ATOM     14  H16 UI1 d          24.462  11.622  34.503  0.00  0.00     0.084 H 
ATOM     15  H17 UI1 d          23.103  13.482  33.535  0.00  0.00     0.086 H 
ENDROOT
BRANCH   1  16
ATOM     16  C8  UI1 d          22.578  15.633  31.830  0.00  0.00     0.256 C 
ATOM     17  N7  UI1 d          21.820  15.709  32.908  0.00  0.00    -0.323 N 
ATOM     18  H8  UI1 d          21.987  15.083  33.670  0.00  0.00     0.169 HD
ATOM     19  O9  UI1 d          22.370  16.342  30.852  0.00  0.00    -0.267 OA
BRANCH  17  20
ATOM     20  C6  UI1 d          20.757  16.677  33.007  0.00  0.00     0.035 A 
ATOM     21  C5  UI1 d          21.114  17.844  33.752  0.00  0.00    -0.057 A 
ATOM     22  C4  UI1 d          20.196  18.882  33.966  0.00  0.00    -0.073 A 
ATOM     23  H7  UI1 d          22.115  17.929  34.159  0.00  0.00     0.086 H 
ATOM     24  C3  UI1 d          18.899  18.777  33.437  0.00  0.00    -0.033 A 
ATOM     25  H6  UI1 d          20.485  19.759  34.535  0.00  0.00     0.084 H 
ATOM     26  C31 UI1 d          18.530  17.624  32.696  0.00  0.00    -0.073 A 
ATOM     27  C30 UI1 d          19.465  16.561  32.482  0.00  0.00    -0.057 A 
ATOM     28  H23 UI1 d          17.529  17.547  32.287  0.00  0.00     0.084 H 
ATOM     29  H22 UI1 d          19.176  15.680  31.920  0.00  0.00     0.086 H 
BRANCH  24  30
ATOM     30  C2  UI1 d          17.890  19.911  33.674  0.00  0.00     0.103 C 
ATOM     31  H4  UI1 d          17.417  20.175  32.717  0.00  0.00     0.082 H 
ATOM     32  H5  UI1 d          17.121  19.563  34.380  0.00  0.00     0.082 H 
BRANCH  30  33
ATOM     33  N1  UI1 d          18.540  21.092  34.225  0.00  0.00    -0.075 N 
ATOM     34  H1  UI1 d          19.514  21.092  33.965  0.00  0.00     0.274 HD
ATOM     35  H2  UI1 d          18.461  21.082  35.230  0.00  0.00     0.274 HD
ATOM     36  H3  UI1 d          18.095  21.921  33.861  0.00  0.00     0.274 HD
ENDBRANCH  30  33
ENDBRANCH  24  30
ENDBRANCH  17  20
ENDBRANCH   1  16
BRANCH   3  37
ATOM     37  N13 UI1 d          27.000  14.536  30.012  0.00  0.00    -0.187 N 
ATOM     38  H10 UI1 d          27.299  13.810  29.346  0.00  0.00     0.184 HD
BRANCH  37  39
ATOM     39  C14 UI1 d          27.650  15.797  29.965  0.00  0.00     0.726 A 
ATOM     40  N15 UI1 d          27.822  16.471  31.127  0.00  0.00    -0.075 NA
ATOM     41  C16 UI1 d          28.450  17.668  31.147  0.00  0.00     0.022 A 
ATOM     42  C17 UI1 d          28.941  18.219  29.944  0.00  0.00    -0.048 A 
ATOM     43  H11 UI1 d          28.577  18.202  32.082  0.00  0.00     0.115 H 
ATOM     44  C18 UI1 d          28.741  17.497  28.758  0.00  0.00     0.022 A 
ATOM     45  H12 UI1 d          29.457  19.172  29.937  0.00  0.00     0.087 H 
ATOM     46  N19 UI1 d          28.102  16.303  28.797  0.00  0.00    -0.075 NA
ATOM     47  H13 UI1 d          29.097  17.892  27.814  0.00  0.00     0.115 H 
ENDBRANCH  37  39
ENDBRANCH   3  37
BRANCH   6  48
ATOM     48  C27 UI1 d          28.754  10.646  32.854  0.00  0.00     0.102 C 
ATOM     49  N29 UI1 d          29.328  10.329  31.701  0.00  0.00    -0.385 N 
ATOM     50  H20 UI1 d          28.883  10.601  30.812  0.00  0.00     0.157 HD
ATOM     51  H21 UI1 d          30.218   9.812  31.694  0.00  0.00     0.157 HD
BRANCH  48  52
ATOM     52  N28 UI1 d          29.327  10.296  33.971  0.00  0.00    -0.385 N 
ATOM     53  H18 UI1 d          30.034   9.547  33.975  0.00  0.00     0.157 HD
ATOM     54  H19 UI1 d          29.074  10.770  34.849  0.00  0.00     0.157 HD
ENDBRANCH  48  52
ENDBRANCH   6  48
TORSDOF 8
ENDMDL
MODEL 6
REMARK VINA RESULT:      -6.6      2.711      9.326
REMARK  8 active torsions:
REMARK  status: ('A' for Active; 'I' for Inactive)
REMARK    1  A    between atoms: N1_1  and  C2_2 
REMARK    2  A    between atoms: C2_2  and  C3_3 
REMARK    3  A    between atoms: C6_6  and  N7_7 
REMARK       I    between atoms: N7_7  and  C8_8 
REMARK    4  A    between atoms: C8_8  and  C10_10 
REMARK    5  A    between atoms: C12_12  and  N13_13 
REMARK    6  A    between atoms: N13_13  and  C14_14 
REMARK    7  A    between atoms: C22_22  and  C27_27 
REMARK    8  A    between atoms: C27_27  and  N28_28 
ROOT
ATOM      1  C10 UI1 d          24.036  14.155  32.403  0.00  0.00     0.035 A 
ATOM      2  C11 UI1 d          24.590  13.198  33.285  0.00  0.00    -0.041 A 
ATOM      3  C12 UI1 d          25.662  12.430  32.892  0.00  0.00     0.061 A 
ATOM      4  C20 UI1 d          26.224  12.607  31.582  0.00  0.00     0.002 A 
ATOM      5  C21 UI1 d          27.314  11.796  31.181  0.00  0.00    -0.057 A 
ATOM      6  C22 UI1 d          27.885  11.955  29.900  0.00  0.00     0.008 A 
ATOM      7  C23 UI1 d          27.381  12.926  29.013  0.00  0.00    -0.069 A 
ATOM      8  C24 UI1 d          26.287  13.737  29.406  0.00  0.00    -0.071 A 
ATOM      9  C25 UI1 d          25.702  13.572  30.695  0.00  0.00    -0.023 A 
ATOM     10  C26 UI1 d          24.596  14.353  31.100  0.00  0.00    -0.057 A 
ATOM     11  H9  UI1 d          24.168  13.069  34.275  0.00  0.00     0.088 H 
ATOM     12  H14 UI1 d          27.711  11.050  31.861  0.00  0.00     0.086 H 
ATOM     13  H15 UI1 d          27.827  13.052  28.033  0.00  0.00     0.085 H 
ATOM     14  H16 UI1 d          25.896  14.484  28.724  0.00  0.00     0.084 H 
ATOM     15  H17 UI1 d          24.175  15.094  30.431  0.00  0.00     0.086 H 
ENDROOT
BRANCH   1  16
ATOM     16  C8  UI1 d          22.819  14.891  32.866  0.00  0.00     0.256 C 
ATOM     17  N7  UI1 d          22.562  16.073  32.339  0.00  0.00    -0.323 N 
ATOM     18  H8  UI1 d          23.235  16.496  31.732  0.00  0.00     0.169 HD
ATOM     19  O9  UI1 d          22.049  14.365  33.661  0.00  0.00    -0.267 OA
BRANCH  17  20
ATOM     20  C6  UI1 d          21.331  16.766  32.623  0.00  0.00     0.035 A 
ATOM     21  C5  UI1 d          21.495  17.888  33.495  0.00  0.00    -0.057 A 
ATOM     22  C4  UI1 d          20.399  18.668  33.893  0.00  0.00    -0.073 A 
ATOM     23  H7  UI1 d          22.485  18.141  33.855  0.00  0.00     0.086 H 
ATOM     24  C3  UI1 d          19.115  18.345  33.426  0.00  0.00    -0.033 A 
ATOM     25  H6  UI1 d          20.543  19.514  34.556  0.00  0.00     0.084 H 
ATOM     26  C31 UI1 d          18.937  17.234  32.560  0.00  0.00    -0.073 A 
ATOM     27  C30 UI1 d          20.053  16.434  32.158  0.00  0.00    -0.057 A 
ATOM     28  H23 UI1 d          17.944  16.989  32.200  0.00  0.00     0.084 H 
ATOM     29  H22 UI1 d          19.911  15.583  31.502  0.00  0.00     0.086 H 
BRANCH  24  30
ATOM     30  C2  UI1 d          17.913  19.195  33.865  0.00  0.00     0.103 C 
ATOM     31  H4  UI1 d          17.267  19.379  32.995  0.00  0.00     0.082 H 
ATOM     32  H5  UI1 d          17.348  18.646  34.633  0.00  0.00     0.082 H 
BRANCH  30  33
ATOM     33  N1  UI1 d          18.342  20.474  34.416  0.00  0.00    -0.075 N 
ATOM     34  H1  UI1 d          18.916  20.315  35.229  0.00  0.00     0.274 HD
ATOM     35  H2  UI1 d          17.532  21.016  34.678  0.00  0.00     0.274 HD
ATOM     36  H3  UI1 d          18.874  20.977  33.723  0.00  0.00     0.274 HD
ENDBRANCH  30  33
ENDBRANCH  24  30
ENDBRANCH  17  20
ENDBRANCH   1  16
BRANCH   3  37
ATOM     37  N13 UI1 d          26.161  11.421  33.789  0.00  0.00    -0.187 N 
ATOM     38  H10 UI1 d          25.767  10.472  33.722  0.00  0.00     0.184 HD
BRANCH  37  39
ATOM     39  C14 UI1 d          27.168  11.662  34.760  0.00  0.00     0.726 A 
ATOM     40  N15 UI1 d          27.634  10.610  35.473  0.00  0.00    -0.075 NA
ATOM     41  C16 UI1 d          28.606  10.776  36.399  0.00  0.00     0.022 A 
ATOM     42  C17 UI1 d          29.147  12.061  36.620  0.00  0.00    -0.048 A 
ATOM     43  H11 UI1 d          28.967   9.928  36.968  0.00  0.00     0.115 H 
ATOM     44  C18 UI1 d          28.637  13.130  35.868  0.00  0.00     0.022 A 
ATOM     45  H12 UI1 d          29.934  12.217  37.349  0.00  0.00     0.087 H 
ATOM     46  N19 UI1 d          27.661  12.905  34.956  0.00  0.00    -0.075 NA
ATOM     47  H13 UI1 d          29.023  14.132  36.016  0.00  0.00     0.115 H 
ENDBRANCH  37  39
ENDBRANCH   3  37
BRANCH   6  48
ATOM     48  C27 UI1 d          29.021  11.071  29.548  0.00  0.00     0.102 C 
ATOM     49  N29 UI1 d          29.589  10.297  30.463  0.00  0.00    -0.385 N 
ATOM     50  H20 UI1 d          29.241  10.306  31.433  0.00  0.00     0.157 HD
ATOM     51  H21 UI1 d          30.378   9.688  30.204  0.00  0.00     0.157 HD
BRANCH  48  52
ATOM     52  N28 UI1 d          29.470  11.050  28.325  0.00  0.00    -0.385 N 
ATOM     53  H18 UI1 d          28.814  11.111  27.533  0.00  0.00     0.157 HD
ATOM     54  H19 UI1 d          30.482  10.973  28.150  0.00  0.00     0.157 HD
ENDBRANCH  48  52
ENDBRANCH   6  48
TORSDOF 8
ENDMDL
MODEL 7
REMARK VINA RESULT:      -6.6      1.474      1.898
REMARK  8 active torsions:
REMARK  status: ('A' for Active; 'I' for Inactive)
REMARK    1  A    between atoms: N1_1  and  C2_2 
REMARK    2  A    between atoms: C2_2  and  C3_3 
REMARK    3  A    between atoms: C6_6  and  N7_7 
REMARK       I    between atoms: N7_7  and  C8_8 
REMARK    4  A    between atoms: C8_8  and  C10_10 
REMARK    5  A    between atoms: C12_12  and  N13_13 
REMARK    6  A    between atoms: N13_13  and  C14_14 
REMARK    7  A    between atoms: C22_22  and  C27_27 
REMARK    8  A    between atoms: C27_27  and  N28_28 
ROOT
ATOM      1  C10 UI1 d          23.290  15.667  33.381  0.00  0.00     0.035 A 
ATOM      2  C11 UI1 d          23.734  16.883  33.950  0.00  0.00    -0.041 A 
ATOM      3  C12 UI1 d          22.845  17.907  34.182  0.00  0.00     0.061 A 
ATOM      4  C20 UI1 d          21.458  17.737  33.851  0.00  0.00     0.002 A 
ATOM      5  C21 UI1 d          20.557  18.806  34.075  0.00  0.00    -0.057 A 
ATOM      6  C22 UI1 d          19.189  18.660  33.761  0.00  0.00     0.008 A 
ATOM      7  C23 UI1 d          18.707  17.448  33.229  0.00  0.00    -0.069 A 
ATOM      8  C24 UI1 d          19.604  16.376  32.998  0.00  0.00    -0.071 A 
ATOM      9  C25 UI1 d          20.989  16.524  33.305  0.00  0.00    -0.023 A 
ATOM     10  C26 UI1 d          21.907  15.478  33.061  0.00  0.00    -0.057 A 
ATOM     11  H9  UI1 d          24.780  17.008  34.204  0.00  0.00     0.088 H 
ATOM     12  H14 UI1 d          20.920  19.741  34.489  0.00  0.00     0.086 H 
ATOM     13  H15 UI1 d          17.655  17.336  32.997  0.00  0.00     0.085 H 
ATOM     14  H16 UI1 d          19.237  15.443  32.587  0.00  0.00     0.084 H 
ATOM     15  H17 UI1 d          21.567  14.541  32.634  0.00  0.00     0.086 H 
ENDROOT
BRANCH   1  16
ATOM     16  C8  UI1 d          24.325  14.632  33.077  0.00  0.00     0.256 C 
ATOM     17  N7  UI1 d          24.121  13.819  32.058  0.00  0.00    -0.323 N 
ATOM     18  H8  UI1 d          23.240  13.839  31.584  0.00  0.00     0.169 HD
ATOM     19  O9  UI1 d          25.367  14.598  33.722  0.00  0.00    -0.267 OA
BRANCH  17  20
ATOM     20  C6  UI1 d          25.142  12.904  31.615  0.00  0.00     0.035 A 
ATOM     21  C5  UI1 d          25.926  13.404  30.529  0.00  0.00    -0.057 A 
ATOM     22  C4  UI1 d          26.954  12.639  29.958  0.00  0.00    -0.073 A 
ATOM     23  H7  UI1 d          25.723  14.396  30.140  0.00  0.00     0.086 H 
ATOM     24  C3  UI1 d          27.221  11.356  30.462  0.00  0.00    -0.033 A 
ATOM     25  H6  UI1 d          27.537  13.036  29.134  0.00  0.00     0.084 H 
ATOM     26  C31 UI1 d          26.451  10.846  31.540  0.00  0.00    -0.073 A 
ATOM     27  C30 UI1 d          25.398  11.624  32.120  0.00  0.00    -0.057 A 
ATOM     28  H23 UI1 d          26.662   9.856  31.928  0.00  0.00     0.084 H 
ATOM     29  H22 UI1 d          24.808  11.227  32.938  0.00  0.00     0.086 H 
BRANCH  24  30
ATOM     30  C2  UI1 d          28.343  10.515  29.835  0.00  0.00     0.103 C 
ATOM     31  H4  UI1 d          29.301  11.041  29.964  0.00  0.00     0.082 H 
ATOM     32  H5  UI1 d          28.388   9.541  30.344  0.00  0.00     0.082 H 
BRANCH  30  33
ATOM     33  N1  UI1 d          28.111  10.296  28.414  0.00  0.00    -0.075 N 
ATOM     34  H1  UI1 d          27.197   9.892  28.281  0.00  0.00     0.274 HD
ATOM     35  H2  UI1 d          28.812   9.669  28.051  0.00  0.00     0.274 HD
ATOM     36  H3  UI1 d          28.162  11.177  27.925  0.00  0.00     0.274 HD
ENDBRANCH  30  33
ENDBRANCH  24  30
ENDBRANCH  17  20
ENDBRANCH   1  16
BRANCH   3  37
ATOM     37  N13 UI1 d          23.342  19.155  34.702  0.00  0.00    -0.187 N 
ATOM     38  H10 UI1 d          23.139  20.016  34.177  0.00  0.00     0.184 HD
BRANCH  37  39
ATOM     39  C14 UI1 d          24.096  19.261  35.900  0.00  0.00     0.726 A 
ATOM     40  N15 UI1 d          24.894  20.344  36.060  0.00  0.00    -0.075 NA
ATOM     41  C16 UI1 d          25.621  20.508  37.188  0.00  0.00     0.022 A 
ATOM     42  C17 UI1 d          25.541  19.545  38.216  0.00  0.00    -0.048 A 
ATOM     43  H11 UI1 d          26.262  21.374  37.302  0.00  0.00     0.115 H 
ATOM     44  C18 UI1 d          24.709  18.433  38.016  0.00  0.00     0.022 A 
ATOM     45  H12 UI1 d          26.107  19.660  39.134  0.00  0.00     0.087 H 
ATOM     46  N19 UI1 d          24.006  18.319  36.864  0.00  0.00    -0.075 NA
ATOM     47  H13 UI1 d          24.629  17.669  38.781  0.00  0.00     0.115 H 
ENDBRANCH  37  39
ENDBRANCH   3  37
BRANCH   6  48
ATOM     48  C27 UI1 d          18.304  19.821  34.020  0.00  0.00     0.102 C 
ATOM     49  N29 UI1 d          16.985  19.693  33.975  0.00  0.00    -0.385 N 
ATOM     50  H20 UI1 d          16.563  18.778  33.760  0.00  0.00     0.157 HD
ATOM     51  H21 UI1 d          16.382  20.508  34.156  0.00  0.00     0.157 HD
BRANCH  48  52
ATOM     52  N28 UI1 d          18.825  20.984  34.293  0.00  0.00    -0.385 N 
ATOM     53  H18 UI1 d          18.986  21.667  33.540  0.00  0.00     0.157 HD
ATOM     54  H19 UI1 d          19.076  21.219  35.264  0.00  0.00     0.157 HD
ENDBRANCH  48  52
ENDBRANCH   6  48
TORSDOF 8
ENDMDL
MODEL 8
REMARK VINA RESULT:      -6.3      2.175      8.815
REMARK  8 active torsions:
REMARK  status: ('A' for Active; 'I' for Inactive)
REMARK    1  A    between atoms: N1_1  and  C2_2 
REMARK    2  A    between atoms: C2_2  and  C3_3 
REMARK    3  A    between atoms: C6_6  and  N7_7 
REMARK       I    between atoms: N7_7  and  C8_8 
REMARK    4  A    between atoms: C8_8  and  C10_10 
REMARK    5  A    between atoms: C12_12  and  N13_13 
REMARK    6  A    between atoms: N13_13  and  C14_14 
REMARK    7  A    between atoms: C22_22  and  C27_27 
REMARK    8  A    between atoms: C27_27  and  N28_28 
ROOT
ATOM      1  C10 UI1 d          24.225  15.311  31.562  0.00  0.00     0.035 A 
ATOM      2  C11 UI1 d          24.866  15.029  32.791  0.00  0.00    -0.041 A 
ATOM      3  C12 UI1 d          25.955  14.190  32.831  0.00  0.00     0.061 A 
ATOM      4  C20 UI1 d          26.448  13.603  31.616  0.00  0.00     0.002 A 
ATOM      5  C21 UI1 d          27.557  12.724  31.673  0.00  0.00    -0.057 A 
ATOM      6  C22 UI1 d          28.061  12.138  30.491  0.00  0.00     0.008 A 
ATOM      7  C23 UI1 d          27.469  12.428  29.246  0.00  0.00    -0.069 A 
ATOM      8  C24 UI1 d          26.356  13.303  29.183  0.00  0.00    -0.071 A 
ATOM      9  C25 UI1 d          25.839  13.888  30.376  0.00  0.00    -0.023 A 
ATOM     10  C26 UI1 d          24.715  14.744  30.341  0.00  0.00    -0.057 A 
ATOM     11  H9  UI1 d          24.496  15.478  33.706  0.00  0.00     0.088 H 
ATOM     12  H14 UI1 d          28.020  12.500  32.627  0.00  0.00     0.086 H 
ATOM     13  H15 UI1 d          27.863  11.984  28.340  0.00  0.00     0.085 H 
ATOM     14  H16 UI1 d          25.898  13.527  28.227  0.00  0.00     0.084 H 
ATOM     15  H17 UI1 d          24.229  14.970  29.399  0.00  0.00     0.086 H 
ENDROOT
BRANCH   1  16
ATOM     16  C8  UI1 d          22.996  16.161  31.607  0.00  0.00     0.256 C 
ATOM     17  N7  UI1 d          22.025  15.818  32.433  0.00  0.00    -0.323 N 
ATOM     18  H8  UI1 d          22.083  14.949  32.924  0.00  0.00     0.169 HD
ATOM     19  O9  UI1 d          22.936  17.189  30.943  0.00  0.00    -0.267 OA
BRANCH  17  20
ATOM     20  C6  UI1 d          20.884  16.673  32.640  0.00  0.00     0.035 A 
ATOM     21  C5  UI1 d          21.163  17.812  33.458  0.00  0.00    -0.057 A 
ATOM     22  C4  UI1 d          20.163  18.741  33.780  0.00  0.00    -0.073 A 
ATOM     23  H7  UI1 d          22.167  17.960  33.838  0.00  0.00     0.086 H 
ATOM     24  C3  UI1 d          18.861  18.554  33.288  0.00  0.00    -0.033 A 
ATOM     25  H6  UI1 d          20.394  19.598  34.404  0.00  0.00     0.084 H 
ATOM     26  C31 UI1 d          18.569  17.428  32.474  0.00  0.00    -0.073 A 
ATOM     27  C30 UI1 d          19.587  16.475  32.150  0.00  0.00    -0.057 A 
ATOM     28  H23 UI1 d          17.564  17.288  32.094  0.00  0.00     0.084 H 
ATOM     29  H22 UI1 d          19.358  15.614  31.534  0.00  0.00     0.086 H 
BRANCH  24  30
ATOM     30  C2  UI1 d          17.764  19.569  33.643  0.00  0.00     0.103 C 
ATOM     31  H4  UI1 d          17.107  19.706  32.771  0.00  0.00     0.082 H 
ATOM     32  H5  UI1 d          17.177  19.179  34.487  0.00  0.00     0.082 H 
BRANCH  30  33
ATOM     33  N1  UI1 d          18.333  20.857  34.015  0.00  0.00    -0.075 N 
ATOM     34  H1  UI1 d          19.306  20.739  34.252  0.00  0.00     0.274 HD
ATOM     35  H2  UI1 d          17.836  21.227  34.810  0.00  0.00     0.274 HD
ATOM     36  H3  UI1 d          18.252  21.497  33.240  0.00  0.00     0.274 HD
ENDBRANCH  30  33
ENDBRANCH  24  30
ENDBRANCH  17  20
ENDBRANCH   1  16
BRANCH   3  37
ATOM     37  N13 UI1 d          26.544  13.874  34.106  0.00  0.00    -0.187 N 
ATOM     38  H10 UI1 d          26.419  12.921  34.477  0.00  0.00     0.184 HD
BRANCH  37  39
ATOM     39  C14 UI1 d          27.287  14.803  34.879  0.00  0.00     0.726 A 
ATOM     40  N15 UI1 d          28.611  14.575  35.055  0.00  0.00    -0.075 NA
ATOM     41  C16 UI1 d          29.373  15.436  35.766  0.00  0.00     0.022 A 
ATOM     42  C17 UI1 d          28.786  16.590  36.327  0.00  0.00    -0.048 A 
ATOM     43  H11 UI1 d          30.430  15.240  35.906  0.00  0.00     0.115 H 
ATOM     44  C18 UI1 d          27.412  16.792  36.130  0.00  0.00     0.022 A 
ATOM     45  H12 UI1 d          29.379  17.299  36.892  0.00  0.00     0.087 H 
ATOM     46  N19 UI1 d          26.696  15.895  35.411  0.00  0.00    -0.075 NA
ATOM     47  H13 UI1 d          26.924  17.664  36.553  0.00  0.00     0.115 H 
ENDBRANCH  37  39
ENDBRANCH   3  37
BRANCH   6  48
ATOM     48  C27 UI1 d          29.221  11.227  30.626  0.00  0.00     0.102 C 
ATOM     49  N29 UI1 d          29.700  10.908  31.821  0.00  0.00    -0.385 N 
ATOM     50  H20 UI1 d          29.263  11.294  32.671  0.00  0.00     0.157 HD
ATOM     51  H21 UI1 d          30.507  10.273  31.900  0.00  0.00     0.157 HD
BRANCH  48  52
ATOM     52  N28 UI1 d          29.782  10.731  29.559  0.00  0.00    -0.385 N 
ATOM     53  H18 UI1 d          29.574   9.765  29.269  0.00  0.00     0.157 HD
ATOM     54  H19 UI1 d          30.435  11.305  29.007  0.00  0.00     0.157 HD
ENDBRANCH  48  52
ENDBRANCH   6  48
TORSDOF 8
ENDMDL
MODEL 9
REMARK VINA RESULT:      -6.1      3.361      9.097
REMARK  8 active torsions:
REMARK  status: ('A' for Active; 'I' for Inactive)
REMARK    1  A    between atoms: N1_1  and  C2_2 
REMARK    2  A    between atoms: C2_2  and  C3_3 
REMARK    3  A    between atoms: C6_6  and  N7_7 
REMARK       I    between atoms: N7_7  and  C8_8 
REMARK    4  A    between atoms: C8_8  and  C10_10 
REMARK    5  A    between atoms: C12_12  and  N13_13 
REMARK    6  A    between atoms: N13_13  and  C14_14 
REMARK    7  A    between atoms: C22_22  and  C27_27 
REMARK    8  A    between atoms: C27_27  and  N28_28 
ROOT
ATOM      1  C10 UI1 d          24.345  16.888  34.496  0.00  0.00     0.035 A 
ATOM      2  C11 UI1 d          24.956  15.747  33.927  0.00  0.00    -0.041 A 
ATOM      3  C12 UI1 d          26.161  15.291  34.410  0.00  0.00     0.061 A 
ATOM      4  C20 UI1 d          26.796  15.973  35.502  0.00  0.00     0.002 A 
ATOM      5  C21 UI1 d          28.046  15.506  35.976  0.00  0.00    -0.057 A 
ATOM      6  C22 UI1 d          28.688  16.158  37.051  0.00  0.00     0.008 A 
ATOM      7  C23 UI1 d          28.086  17.274  37.666  0.00  0.00    -0.069 A 
ATOM      8  C24 UI1 d          26.838  17.749  37.193  0.00  0.00    -0.071 A 
ATOM      9  C25 UI1 d          26.193  17.099  36.101  0.00  0.00    -0.023 A 
ATOM     10  C26 UI1 d          24.959  17.569  35.596  0.00  0.00    -0.057 A 
ATOM     11  H9  UI1 d          24.473  15.230  33.106  0.00  0.00     0.088 H 
ATOM     12  H14 UI1 d          28.513  14.644  35.511  0.00  0.00     0.086 H 
ATOM     13  H15 UI1 d          28.576  17.767  38.497  0.00  0.00     0.085 H 
ATOM     14  H16 UI1 d          26.373  18.609  37.663  0.00  0.00     0.084 H 
ATOM     15  H17 UI1 d          24.483  18.437  36.037  0.00  0.00     0.086 H 
ENDROOT
BRANCH   1  16
ATOM     16  C8  UI1 d          23.081  17.377  33.864  0.00  0.00     0.256 C 
ATOM     17  N7  UI1 d          21.930  16.985  34.376  0.00  0.00    -0.323 N 
ATOM     18  H8  UI1 d          21.925  16.291  35.097  0.00  0.00     0.169 HD
ATOM     19  O9  UI1 d          23.128  18.181  32.940  0.00  0.00    -0.267 OA
BRANCH  17  20
ATOM     20  C6  UI1 d          20.680  17.536  33.917  0.00  0.00     0.035 A 
ATOM     21  C5  UI1 d          20.008  16.712  32.962  0.00  0.00    -0.057 A 
ATOM     22  C4  UI1 d          18.787  17.102  32.393  0.00  0.00    -0.073 A 
ATOM     23  H7  UI1 d          20.451  15.766  32.671  0.00  0.00     0.086 H 
ATOM     24  C3  UI1 d          18.208  18.325  32.769  0.00  0.00    -0.033 A 
ATOM     25  H6  UI1 d          18.293  16.464  31.668  0.00  0.00     0.084 H 
ATOM     26  C31 UI1 d          18.864  19.154  33.717  0.00  0.00    -0.073 A 
ATOM     27  C30 UI1 d          20.114  18.760  34.294  0.00  0.00    -0.057 A 
ATOM     28  H23 UI1 d          18.414  20.096  34.007  0.00  0.00     0.084 H 
ATOM     29  H22 UI1 d          20.614  19.399  35.012  0.00  0.00     0.086 H 
BRANCH  24  30
ATOM     30  C2  UI1 d          16.873  18.755  32.144  0.00  0.00     0.103 C 
ATOM     31  H4  UI1 d          16.080  18.675  32.902  0.00  0.00     0.082 H 
ATOM     32  H5  UI1 d          16.955  19.800  31.809  0.00  0.00     0.082 H 
BRANCH  30  33
ATOM     33  N1  UI1 d          16.526  17.917  31.004  0.00  0.00    -0.075 N 
ATOM     34  H1  UI1 d          15.872  17.208  31.295  0.00  0.00     0.274 HD
ATOM     35  H2  UI1 d          17.359  17.478  30.644  0.00  0.00     0.274 HD
ATOM     36  H3  UI1 d          16.107  18.486  30.284  0.00  0.00     0.274 HD
ENDBRANCH  30  33
ENDBRANCH  24  30
ENDBRANCH  17  20
ENDBRANCH   1  16
BRANCH   3  37
ATOM     37  N13 UI1 d          26.787  14.166  33.765  0.00  0.00    -0.187 N 
ATOM     38  H10 UI1 d          27.662  14.327  33.247  0.00  0.00     0.184 HD
BRANCH  37  39
ATOM     39  C14 UI1 d          26.264  12.847  33.805  0.00  0.00     0.726 A 
ATOM     40  N15 UI1 d          25.295  12.516  32.919  0.00  0.00    -0.075 NA
ATOM     41  C16 UI1 d          24.773  11.269  32.898  0.00  0.00     0.022 A 
ATOM     42  C17 UI1 d          25.248  10.297  33.804  0.00  0.00    -0.048 A 
ATOM     43  H11 UI1 d          23.993  11.017  32.189  0.00  0.00     0.115 H 
ATOM     44  C18 UI1 d          26.248  10.675  34.712  0.00  0.00     0.022 A 
ATOM     45  H12 UI1 d          24.851   9.288  33.799  0.00  0.00     0.087 H 
ATOM     46  N19 UI1 d          26.733  11.940  34.690  0.00  0.00    -0.075 NA
ATOM     47  H13 UI1 d          26.631   9.958  35.429  0.00  0.00     0.115 H 
ENDBRANCH  37  39
ENDBRANCH   3  37
BRANCH   6  48
ATOM     48  C27 UI1 d          29.994  15.617  37.493  0.00  0.00     0.102 C 
ATOM     49  N29 UI1 d          30.661  16.181  38.491  0.00  0.00    -0.385 N 
ATOM     50  H20 UI1 d          30.272  17.006  38.969  0.00  0.00     0.157 HD
ATOM     51  H21 UI1 d          31.569  15.795  38.787  0.00  0.00     0.157 HD
BRANCH  48  52
ATOM     52  N28 UI1 d          30.498  14.573  36.897  0.00  0.00    -0.385 N 
ATOM     53  H18 UI1 d          30.489  13.657  37.366  0.00  0.00     0.157 HD
ATOM     54  H19 UI1 d          30.906  14.666  35.955  0.00  0.00     0.157 HD
ENDBRANCH  48  52
ENDBRANCH   6  48
TORSDOF 8
ENDMDL
MODEL 10
REMARK VINA RESULT:      -6.0      2.312      8.844
REMARK  8 active torsions:
REMARK  status: ('A' for Active; 'I' for Inactive)
REMARK    1  A    between atoms: N1_1  and  C2_2 
REMARK    2  A    between atoms: C2_2  and  C3_3 
REMARK    3  A    between atoms: C6_6  and  N7_7 
REMARK       I    between atoms: N7_7  and  C8_8 
REMARK    4  A    between atoms: C8_8  and  C10_10 
REMARK    5  A    between atoms: C12_12  and  N13_13 
REMARK    6  A    between atoms: N13_13  and  C14_14 
REMARK    7  A    between atoms: C22_22  and  C27_27 
REMARK    8  A    between atoms: C27_27  and  N28_28 
ROOT
ATOM      1  C10 UI1 d          24.196  14.257  32.766  0.00  0.00     0.035 A 
ATOM      2  C11 UI1 d          25.355  15.066  32.810  0.00  0.00    -0.041 A 
ATOM      3  C12 UI1 d          26.600  14.505  32.645  0.00  0.00     0.061 A 
ATOM      4  C20 UI1 d          26.722  13.092  32.419  0.00  0.00     0.002 A 
ATOM      5  C21 UI1 d          28.010  12.524  32.271  0.00  0.00    -0.057 A 
ATOM      6  C22 UI1 d          28.154  11.138  32.044  0.00  0.00     0.008 A 
ATOM      7  C23 UI1 d          27.017  10.311  31.956  0.00  0.00    -0.069 A 
ATOM      8  C24 UI1 d          25.726  10.873  32.108  0.00  0.00    -0.071 A 
ATOM      9  C25 UI1 d          25.578  12.270  32.347  0.00  0.00    -0.023 A 
ATOM     10  C26 UI1 d          24.301  12.849  32.526  0.00  0.00    -0.057 A 
ATOM     11  H9  UI1 d          25.261  16.133  32.975  0.00  0.00     0.088 H 
ATOM     12  H14 UI1 d          28.890  13.155  32.333  0.00  0.00     0.086 H 
ATOM     13  H15 UI1 d          27.130   9.249  31.773  0.00  0.00     0.085 H 
ATOM     14  H16 UI1 d          24.849  10.238  32.042  0.00  0.00     0.084 H 
ATOM     15  H17 UI1 d          23.410  12.234  32.482  0.00  0.00     0.086 H 
ENDROOT
BRANCH   1  16
ATOM     16  C8  UI1 d          22.884  14.921  33.040  0.00  0.00     0.256 C 
ATOM     17  N7  UI1 d          22.775  16.216  32.808  0.00  0.00    -0.323 N 
ATOM     18  H8  UI1 d          23.590  16.740  32.562  0.00  0.00     0.169 HD
ATOM     19  O9  UI1 d          21.922  14.254  33.402  0.00  0.00    -0.267 OA
BRANCH  17  20
ATOM     20  C6  UI1 d          21.503  16.888  32.903  0.00  0.00     0.035 A 
ATOM     21  C5  UI1 d          21.528  18.042  33.746  0.00  0.00    -0.057 A 
ATOM     22  C4  UI1 d          20.374  18.807  33.969  0.00  0.00    -0.073 A 
ATOM     23  H7  UI1 d          22.458  18.331  34.223  0.00  0.00     0.086 H 
ATOM     24  C3  UI1 d          19.170  18.437  33.351  0.00  0.00    -0.033 A 
ATOM     25  H6  UI1 d          20.413  19.678  34.614  0.00  0.00     0.084 H 
ATOM     26  C31 UI1 d          19.130  17.293  32.511  0.00  0.00    -0.073 A 
ATOM     27  C30 UI1 d          20.305  16.508  32.287  0.00  0.00    -0.057 A 
ATOM     28  H23 UI1 d          18.198  17.011  32.033  0.00  0.00     0.084 H 
ATOM     29  H22 UI1 d          20.268  15.631  31.650  0.00  0.00     0.086 H 
BRANCH  24  30
ATOM     30  C2  UI1 d          17.904  19.271  33.597  0.00  0.00     0.103 C 
ATOM     31  H4  UI1 d          17.281  19.253  32.691  0.00  0.00     0.082 H 
ATOM     32  H5  UI1 d          17.344  18.833  34.436  0.00  0.00     0.082 H 
BRANCH  30  33
ATOM     33  N1  UI1 d          18.234  20.653  33.919  0.00  0.00    -0.075 N 
ATOM     34  H1  UI1 d          18.269  21.197  33.070  0.00  0.00     0.274 HD
ATOM     35  H2  UI1 d          19.131  20.687  34.377  0.00  0.00     0.274 HD
ATOM     36  H3  UI1 d          17.529  21.033  34.531  0.00  0.00     0.274 HD
ENDBRANCH  30  33
ENDBRANCH  24  30
ENDBRANCH  17  20
ENDBRANCH   1  16
BRANCH   3  37
ATOM     37  N13 UI1 d          27.763  15.347  32.760  0.00  0.00    -0.187 N 
ATOM     38  H10 UI1 d          28.580  14.981  33.268  0.00  0.00     0.184 HD
BRANCH  37  39
ATOM     39  C14 UI1 d          27.844  16.653  32.211  0.00  0.00     0.726 A 
ATOM     40  N15 UI1 d          27.330  17.681  32.927  0.00  0.00    -0.075 NA
ATOM     41  C16 UI1 d          27.395  18.949  32.463  0.00  0.00     0.022 A 
ATOM     42  C17 UI1 d          28.014  19.207  31.221  0.00  0.00    -0.048 A 
ATOM     43  H11 UI1 d          26.974  19.763  33.041  0.00  0.00     0.115 H 
ATOM     44  C18 UI1 d          28.532  18.119  30.503  0.00  0.00     0.022 A 
ATOM     45  H12 UI1 d          28.087  20.217  30.834  0.00  0.00     0.087 H 
ATOM     46  N19 UI1 d          28.436  16.869  31.015  0.00  0.00    -0.075 NA
ATOM     47  H13 UI1 d          29.007  18.278  29.542  0.00  0.00     0.115 H 
ENDBRANCH  37  39
ENDBRANCH   3  37
BRANCH   6  48
ATOM     48  C27 UI1 d          29.532  10.612  31.902  0.00  0.00     0.102 C 
ATOM     49  N29 UI1 d          30.019  10.297  30.709  0.00  0.00    -0.385 N 
ATOM     50  H20 UI1 d          29.438  10.419  29.867  0.00  0.00     0.157 HD
ATOM     51  H21 UI1 d          30.979   9.932  30.625  0.00  0.00     0.157 HD
BRANCH  48  52
ATOM     52  N28 UI1 d          30.277  10.453  32.959  0.00  0.00    -0.385 N 
ATOM     53  H18 UI1 d          30.819  11.246  33.331  0.00  0.00     0.157 HD
ATOM     54  H19 UI1 d          30.325   9.534  33.422  0.00  0.00     0.157 HD
ENDBRANCH  48  52
ENDBRANCH   6  48
TORSDOF 8
ENDMDL
