MODEL 1
REMARK VINA RESULT:      -7.9      0.000      0.000
REMARK  16 active torsions:
REMARK  status: ('A' for Active; 'I' for Inactive)
REMARK    1  A    between atoms: C2_1  and  O2_7 
REMARK    2  A    between atoms: C3_2  and  O3_8 
REMARK    3  A    between atoms: C4_3  and  O4_9 
REMARK    4  A    between atoms: C5_4  and  C6_5 
REMARK    5  A    between atoms: C6_5  and  O6_11 
REMARK    6  A    between atoms: O4_20  and  C1_6 
REMARK    7  A    between atoms: C2_12  and  O2_18 
REMARK    8  A    between atoms: C3_13  and  O3_19 
REMARK    9  A    between atoms: C4_14  and  O4_20 
REMARK   10  A    between atoms: C5_15  and  C6_16 
REMARK   11  A    between atoms: C6_16  and  O6_22 
REMARK   12  A    between atoms: O4_30  and  C1_17 
REMARK   13  A    between atoms: C5_24  and  C6_23 
REMARK   14  A    between atoms: C6_23  and  O6_28 
REMARK   15  A    between atoms: C4_25  and  O4_30 
REMARK   16  A    between atoms: C3_26  and  O3_31 
ROOT
ATOM      1  C2  MOL d          61.624  47.675  36.361  0.00  0.00     0.110 C 
ATOM      2  C3  MOL d          60.924  48.653  37.298  0.00  0.00     0.092 C 
ATOM      3  C4  MOL d          59.422  48.440  37.205  0.00  0.00     0.096 C 
ATOM      4  C5  MOL d          59.137  46.982  37.561  0.00  0.00     0.089 C 
ATOM      5  C1  MOL d          61.191  46.248  36.670  0.00  0.00     0.159 C 
ATOM      6  O5  MOL d          59.780  46.146  36.607  0.00  0.00    -0.348 OA
ATOM      7  H12 MOL d          61.337  47.919  35.327  0.00  0.00     0.094 H 
ATOM      8  H13 MOL d          61.256  48.469  38.332  0.00  0.00     0.091 H 
ATOM      9  H14 MOL d          59.076  48.646  36.182  0.00  0.00     0.091 H 
ATOM     10  H15 MOL d          59.552  46.789  38.561  0.00  0.00     0.090 H 
ATOM     11  H18 MOL d          61.556  45.942  37.662  0.00  0.00     0.133 H 
ENDROOT
BRANCH   3  12
ATOM     12  O4  MOL d          58.766  49.319  38.112  0.00  0.00    -0.348 OA
BRANCH  12  13
ATOM     13  C1  MOL d          57.729  50.122  37.551  0.00  0.00     0.159 C 
ATOM     14  C2  MOL d          56.884  50.613  38.711  0.00  0.00     0.110 C 
ATOM     15  C3  MOL d          55.854  51.616  38.226  0.00  0.00     0.092 C 
ATOM     16  H1  MOL d          57.540  51.114  39.438  0.00  0.00     0.094 H 
ATOM     17  C4  MOL d          56.480  52.706  37.380  0.00  0.00     0.090 C 
ATOM     18  H2  MOL d          55.115  51.087  37.606  0.00  0.00     0.091 H 
ATOM     19  C5  MOL d          57.354  52.084  36.308  0.00  0.00     0.089 C 
ATOM     20  H3  MOL d          57.102  53.348  38.022  0.00  0.00     0.091 H 
ATOM     21  O5  MOL d          58.319  51.213  36.880  0.00  0.00    -0.348 OA
ATOM     22  H4  MOL d          56.701  51.497  35.645  0.00  0.00     0.090 H 
ATOM     23  H7  MOL d          57.116  49.536  36.850  0.00  0.00     0.133 H 
BRANCH  14  24
ATOM     24  O2  MOL d          56.269  49.503  39.350  0.00  0.00    -0.388 OA
ATOM     25  H8  MOL d          55.807  48.983  38.703  0.00  0.00     0.210 HD
ENDBRANCH  14  24
BRANCH  15  26
ATOM     26  O3  MOL d          55.196  52.152  39.354  0.00  0.00    -0.390 OA
ATOM     27  H9  MOL d          54.746  52.952  39.106  0.00  0.00     0.210 HD
ENDBRANCH  15  26
BRANCH  17  28
ATOM     28  O4  MOL d          55.470  53.491  36.786  0.00  0.00    -0.390 OA
ATOM     29  H10 MOL d          55.665  53.611  35.864  0.00  0.00     0.210 HD
ENDBRANCH  17  28
BRANCH  19  30
ATOM     30  C6  MOL d          58.083  53.105  35.470  0.00  0.00     0.043 C 
ATOM     31  H5  MOL d          57.424  53.455  34.662  0.00  0.00     0.078 H 
ATOM     32  H6  MOL d          58.984  52.647  35.035  0.00  0.00     0.078 H 
BRANCH  30  33
ATOM     33  O6  MOL d          58.454  54.197  36.283  0.00  0.00    -0.398 OA
ATOM     34  H11 MOL d          59.387  54.352  36.197  0.00  0.00     0.209 HD
ENDBRANCH  30  33
ENDBRANCH  19  30
ENDBRANCH  12  13
ENDBRANCH   3  12
BRANCH   2  35
ATOM     35  O3  MOL d          61.249  49.983  36.934  0.00  0.00    -0.390 OA
ATOM     36  H20 MOL d          62.130  50.007  36.580  0.00  0.00     0.210 HD
ENDBRANCH   2  35
BRANCH   4  37
ATOM     37  C6  MOL d          57.683  46.597  37.569  0.00  0.00     0.043 C 
ATOM     38  H16 MOL d          57.585  45.529  37.326  0.00  0.00     0.078 H 
ATOM     39  H17 MOL d          57.141  47.195  36.821  0.00  0.00     0.078 H 
BRANCH  37  40
ATOM     40  O6  MOL d          57.136  46.841  38.856  0.00  0.00    -0.398 OA
ATOM     41  H21 MOL d          57.427  47.690  39.166  0.00  0.00     0.209 HD
ENDBRANCH  37  40
ENDBRANCH   4  37
BRANCH   1  42
ATOM     42  O2  MOL d          63.029  47.767  36.473  0.00  0.00    -0.388 OA
ATOM     43  H19 MOL d          63.290  47.543  37.359  0.00  0.00     0.210 HD
ENDBRANCH   1  42
BRANCH   5  44
ATOM     44  O4  MOL d          61.702  45.433  35.683  0.00  0.00    -0.348 OA
BRANCH  44  45
ATOM     45  C4  MOL d          61.551  44.041  35.855  0.00  0.00     0.097 C 
ATOM     46  C5  MOL d          62.921  43.373  35.967  0.00  0.00     0.119 C 
ATOM     47  O5  MOL d          62.758  41.961  36.084  0.00  0.00    -0.195 OA
ATOM     48  H24 MOL d          63.506  43.620  35.068  0.00  0.00     0.094 H 
ATOM     49  N1  MOL d          62.179  41.434  34.883  0.00  0.00     0.042 N 
ATOM     50  C2  MOL d          60.823  41.934  34.731  0.00  0.00     0.135 C 
ATOM     51  H31 MOL d          62.733  41.720  34.090  0.00  0.00     0.315 HD
ATOM     52  H32 MOL d          62.160  40.427  34.934  0.00  0.00     0.315 HD
ATOM     53  C3  MOL d          60.851  43.463  34.624  0.00  0.00     0.088 C 
ATOM     54  H27 MOL d          60.376  41.511  33.819  0.00  0.00     0.084 H 
ATOM     55  H28 MOL d          60.223  41.639  35.604  0.00  0.00     0.084 H 
ATOM     56  H26 MOL d          61.392  43.776  33.718  0.00  0.00     0.089 H 
ATOM     57  H25 MOL d          60.959  43.840  36.760  0.00  0.00     0.091 H 
BRANCH  46  58
ATOM     58  C6  MOL d          63.696  43.772  37.207  0.00  0.00     0.045 C 
ATOM     59  H22 MOL d          64.368  42.949  37.494  0.00  0.00     0.078 H 
ATOM     60  H23 MOL d          62.991  43.971  38.027  0.00  0.00     0.078 H 
BRANCH  58  61
ATOM     61  O6  MOL d          64.472  44.947  36.959  0.00  0.00    -0.398 OA
ATOM     62  H29 MOL d          64.004  45.512  36.357  0.00  0.00     0.209 HD
ENDBRANCH  58  61
ENDBRANCH  46  58
BRANCH  53  63
ATOM     63  O3  MOL d          59.491  43.875  34.542  0.00  0.00    -0.391 OA
ATOM     64  H30 MOL d          58.999  43.241  34.034  0.00  0.00     0.210 HD
ENDBRANCH  53  63
ENDBRANCH  44  45
ENDBRANCH   5  44
TORSDOF 16
ENDMDL
MODEL 2
REMARK VINA RESULT:      -7.3      0.807      1.992
REMARK  16 active torsions:
REMARK  status: ('A' for Active; 'I' for Inactive)
REMARK    1  A    between atoms: C2_1  and  O2_7 
REMARK    2  A    between atoms: C3_2  and  O3_8 
REMARK    3  A    between atoms: C4_3  and  O4_9 
REMARK    4  A    between atoms: C5_4  and  C6_5 
REMARK    5  A    between atoms: C6_5  and  O6_11 
REMARK    6  A    between atoms: O4_20  and  C1_6 
REMARK    7  A    between atoms: C2_12  and  O2_18 
REMARK    8  A    between atoms: C3_13  and  O3_19 
REMARK    9  A    between atoms: C4_14  and  O4_20 
REMARK   10  A    between atoms: C5_15  and  C6_16 
REMARK   11  A    between atoms: C6_16  and  O6_22 
REMARK   12  A    between atoms: O4_30  and  C1_17 
REMARK   13  A    between atoms: C5_24  and  C6_23 
REMARK   14  A    between atoms: C6_23  and  O6_28 
REMARK   15  A    between atoms: C4_25  and  O4_30 
REMARK   16  A    between atoms: C3_26  and  O3_31 
ROOT
ATOM      1  C2  MOL d          61.523  47.666  36.177  0.00  0.00     0.110 C 
ATOM      2  C3  MOL d          60.898  48.601  37.207  0.00  0.00     0.092 C 
ATOM      3  C4  MOL d          59.409  48.309  37.301  0.00  0.00     0.096 C 
ATOM      4  C5  MOL d          59.248  46.836  37.673  0.00  0.00     0.089 C 
ATOM      5  C1  MOL d          61.208  46.216  36.522  0.00  0.00     0.159 C 
ATOM      6  O5  MOL d          59.807  46.040  36.637  0.00  0.00    -0.348 OA
ATOM      7  H12 MOL d          61.095  47.900  35.191  0.00  0.00     0.094 H 
ATOM      8  H13 MOL d          61.367  48.430  38.188  0.00  0.00     0.091 H 
ATOM      9  H14 MOL d          58.926  48.501  36.332  0.00  0.00     0.091 H 
ATOM     10  H15 MOL d          59.796  46.661  38.611  0.00  0.00     0.090 H 
ATOM     11  H18 MOL d          61.711  45.926  37.456  0.00  0.00     0.133 H 
ENDROOT
BRANCH   3  12
ATOM     12  O4  MOL d          58.828  49.147  38.294  0.00  0.00    -0.348 OA
BRANCH  12  13
ATOM     13  C1  MOL d          57.778  50.001  37.842  0.00  0.00     0.159 C 
ATOM     14  C2  MOL d          57.160  50.620  39.081  0.00  0.00     0.110 C 
ATOM     15  C3  MOL d          56.143  51.676  38.691  0.00  0.00     0.092 C 
ATOM     16  H1  MOL d          57.955  51.105  39.667  0.00  0.00     0.094 H 
ATOM     17  C4  MOL d          56.708  52.665  37.690  0.00  0.00     0.090 C 
ATOM     18  H2  MOL d          55.281  51.177  38.224  0.00  0.00     0.091 H 
ATOM     19  C5  MOL d          57.359  51.916  36.543  0.00  0.00     0.089 C 
ATOM     20  H3  MOL d          57.466  53.287  38.189  0.00  0.00     0.091 H 
ATOM     21  O5  MOL d          58.335  51.002  37.020  0.00  0.00    -0.348 OA
ATOM     22  H4  MOL d          56.570  51.349  36.025  0.00  0.00     0.090 H 
ATOM     23  H7  MOL d          57.024  49.429  37.281  0.00  0.00     0.133 H 
BRANCH  14  24
ATOM     24  O2  MOL d          56.573  49.601  39.876  0.00  0.00    -0.388 OA
ATOM     25  H8  MOL d          55.648  49.787  39.996  0.00  0.00     0.210 HD
ENDBRANCH  14  24
BRANCH  15  26
ATOM     26  O3  MOL d          55.706  52.325  39.866  0.00  0.00    -0.390 OA
ATOM     27  H9  MOL d          56.460  52.560  40.395  0.00  0.00     0.210 HD
ENDBRANCH  15  26
BRANCH  17  28
ATOM     28  O4  MOL d          55.678  53.496  37.204  0.00  0.00    -0.390 OA
ATOM     29  H10 MOL d          55.221  53.052  36.498  0.00  0.00     0.210 HD
ENDBRANCH  17  28
BRANCH  19  30
ATOM     30  C6  MOL d          58.022  52.827  35.540  0.00  0.00     0.043 C 
ATOM     31  H5  MOL d          57.298  53.102  34.758  0.00  0.00     0.078 H 
ATOM     32  H6  MOL d          58.877  52.309  35.082  0.00  0.00     0.078 H 
BRANCH  30  33
ATOM     33  O6  MOL d          58.471  53.993  36.196  0.00  0.00    -0.398 OA
ATOM     34  H11 MOL d          58.944  53.750  36.984  0.00  0.00     0.209 HD
ENDBRANCH  30  33
ENDBRANCH  19  30
ENDBRANCH  12  13
ENDBRANCH   3  12
BRANCH   2  35
ATOM     35  O3  MOL d          61.104  49.948  36.820  0.00  0.00    -0.390 OA
ATOM     36  H20 MOL d          60.500  50.508  37.293  0.00  0.00     0.210 HD
ENDBRANCH   2  35
BRANCH   4  37
ATOM     37  C6  MOL d          57.828  46.374  37.860  0.00  0.00     0.043 C 
ATOM     38  H16 MOL d          57.447  46.744  38.823  0.00  0.00     0.078 H 
ATOM     39  H17 MOL d          57.796  45.275  37.850  0.00  0.00     0.078 H 
BRANCH  37  40
ATOM     40  O6  MOL d          57.023  46.881  36.807  0.00  0.00    -0.398 OA
ATOM     41  H21 MOL d          56.243  47.283  37.171  0.00  0.00     0.209 HD
ENDBRANCH  37  40
ENDBRANCH   4  37
BRANCH   1  42
ATOM     42  O2  MOL d          62.924  47.832  36.113  0.00  0.00    -0.388 OA
ATOM     43  H19 MOL d          63.134  48.758  36.126  0.00  0.00     0.210 HD
ENDBRANCH   1  42
BRANCH   5  44
ATOM     44  O4  MOL d          61.632  45.434  35.469  0.00  0.00    -0.348 OA
BRANCH  44  45
ATOM     45  C4  MOL d          62.336  44.254  35.787  0.00  0.00     0.097 C 
ATOM     46  C5  MOL d          61.355  43.133  36.128  0.00  0.00     0.119 C 
ATOM     47  O5  MOL d          62.076  41.961  36.501  0.00  0.00    -0.195 OA
ATOM     48  H24 MOL d          60.711  43.469  36.954  0.00  0.00     0.094 H 
ATOM     49  N1  MOL d          62.808  42.202  37.711  0.00  0.00     0.042 N 
ATOM     50  C2  MOL d          63.844  43.193  37.470  0.00  0.00     0.135 C 
ATOM     51  H31 MOL d          62.179  42.543  38.422  0.00  0.00     0.315 HD
ATOM     52  H32 MOL d          63.234  41.343  38.022  0.00  0.00     0.315 HD
ATOM     53  C3  MOL d          63.198  44.510  37.024  0.00  0.00     0.088 C 
ATOM     54  H27 MOL d          64.416  43.359  38.395  0.00  0.00     0.084 H 
ATOM     55  H28 MOL d          64.521  42.831  36.681  0.00  0.00     0.084 H 
ATOM     56  H26 MOL d          62.568  44.921  37.827  0.00  0.00     0.089 H 
ATOM     57  H25 MOL d          62.967  43.956  34.936  0.00  0.00     0.091 H 
BRANCH  46  58
ATOM     58  C6  MOL d          60.496  42.694  34.958  0.00  0.00     0.045 C 
ATOM     59  H22 MOL d          59.806  41.905  35.292  0.00  0.00     0.078 H 
ATOM     60  H23 MOL d          61.144  42.301  34.161  0.00  0.00     0.078 H 
BRANCH  58  61
ATOM     61  O6  MOL d          59.740  43.795  34.448  0.00  0.00    -0.398 OA
ATOM     62  H29 MOL d          58.825  43.549  34.388  0.00  0.00     0.209 HD
ENDBRANCH  58  61
ENDBRANCH  46  58
BRANCH  53  63
ATOM     63  O3  MOL d          64.274  45.400  36.748  0.00  0.00    -0.391 OA
ATOM     64  H30 MOL d          64.091  45.877  35.947  0.00  0.00     0.210 HD
ENDBRANCH  53  63
ENDBRANCH  44  45
ENDBRANCH   5  44
TORSDOF 16
ENDMDL
MODEL 3
REMARK VINA RESULT:      -5.7      1.761      2.665
REMARK  16 active torsions:
REMARK  status: ('A' for Active; 'I' for Inactive)
REMARK    1  A    between atoms: C2_1  and  O2_7 
REMARK    2  A    between atoms: C3_2  and  O3_8 
REMARK    3  A    between atoms: C4_3  and  O4_9 
REMARK    4  A    between atoms: C5_4  and  C6_5 
REMARK    5  A    between atoms: C6_5  and  O6_11 
REMARK    6  A    between atoms: O4_20  and  C1_6 
REMARK    7  A    between atoms: C2_12  and  O2_18 
REMARK    8  A    between atoms: C3_13  and  O3_19 
REMARK    9  A    between atoms: C4_14  and  O4_20 
REMARK   10  A    between atoms: C5_15  and  C6_16 
REMARK   11  A    between atoms: C6_16  and  O6_22 
REMARK   12  A    between atoms: O4_30  and  C1_17 
REMARK   13  A    between atoms: C5_24  and  C6_23 
REMARK   14  A    between atoms: C6_23  and  O6_28 
REMARK   15  A    between atoms: C4_25  and  O4_30 
REMARK   16  A    between atoms: C3_26  and  O3_31 
ROOT
ATOM      1  C2  MOL d          61.418  47.626  36.557  0.00  0.00     0.110 C 
ATOM      2  C3  MOL d          61.122  48.479  37.785  0.00  0.00     0.092 C 
ATOM      3  C4  MOL d          59.912  47.906  38.507  0.00  0.00     0.096 C 
ATOM      4  C5  MOL d          60.229  46.455  38.863  0.00  0.00     0.089 C 
ATOM      5  C1  MOL d          61.583  46.165  36.957  0.00  0.00     0.159 C 
ATOM      6  O5  MOL d          60.436  45.725  37.662  0.00  0.00    -0.348 OA
ATOM      7  H12 MOL d          60.569  47.712  35.862  0.00  0.00     0.094 H 
ATOM      8  H13 MOL d          61.991  48.462  38.460  0.00  0.00     0.091 H 
ATOM      9  H14 MOL d          59.031  47.942  37.849  0.00  0.00     0.091 H 
ATOM     10  H15 MOL d          61.150  46.446  39.464  0.00  0.00     0.090 H 
ATOM     11  H18 MOL d          62.486  46.035  37.571  0.00  0.00     0.133 H 
ENDROOT
BRANCH   3  12
ATOM     12  O4  MOL d          59.658  48.671  39.679  0.00  0.00    -0.348 OA
BRANCH  12  13
ATOM     13  C1  MOL d          58.322  49.146  39.829  0.00  0.00     0.159 C 
ATOM     14  C2  MOL d          58.345  50.623  39.486  0.00  0.00     0.110 C 
ATOM     15  C3  MOL d          56.934  51.179  39.452  0.00  0.00     0.092 C 
ATOM     16  H1  MOL d          58.789  50.747  38.487  0.00  0.00     0.094 H 
ATOM     17  C4  MOL d          56.012  50.334  38.596  0.00  0.00     0.090 C 
ATOM     18  H2  MOL d          56.535  51.183  40.477  0.00  0.00     0.091 H 
ATOM     19  C5  MOL d          56.141  48.876  38.991  0.00  0.00     0.089 C 
ATOM     20  H3  MOL d          56.300  50.446  37.539  0.00  0.00     0.091 H 
ATOM     21  O5  MOL d          57.493  48.447  38.927  0.00  0.00    -0.348 OA
ATOM     22  H4  MOL d          55.791  48.780  40.030  0.00  0.00     0.090 H 
ATOM     23  H7  MOL d          57.967  48.996  40.859  0.00  0.00     0.133 H 
BRANCH  14  24
ATOM     24  O2  MOL d          59.154  51.314  40.427  0.00  0.00    -0.388 OA
ATOM     25  H8  MOL d          59.405  52.157  40.069  0.00  0.00     0.210 HD
ENDBRANCH  14  24
BRANCH  15  26
ATOM     26  O3  MOL d          56.995  52.510  38.986  0.00  0.00    -0.390 OA
ATOM     27  H9  MOL d          56.772  53.103  39.694  0.00  0.00     0.210 HD
ENDBRANCH  15  26
BRANCH  17  28
ATOM     28  O4  MOL d          54.680  50.765  38.757  0.00  0.00    -0.390 OA
ATOM     29  H10 MOL d          54.228  50.715  37.922  0.00  0.00     0.210 HD
ENDBRANCH  17  28
BRANCH  19  30
ATOM     30  C6  MOL d          55.316  47.952  38.129  0.00  0.00     0.043 C 
ATOM     31  H5  MOL d          55.938  47.558  37.312  0.00  0.00     0.078 H 
ATOM     32  H6  MOL d          54.464  48.506  37.707  0.00  0.00     0.078 H 
BRANCH  30  33
ATOM     33  O6  MOL d          54.838  46.882  38.916  0.00  0.00    -0.398 OA
ATOM     34  H11 MOL d          54.216  46.372  38.411  0.00  0.00     0.209 HD
ENDBRANCH  30  33
ENDBRANCH  19  30
ENDBRANCH  12  13
ENDBRANCH   3  12
BRANCH   2  35
ATOM     35  O3  MOL d          60.863  49.815  37.391  0.00  0.00    -0.390 OA
ATOM     36  H20 MOL d          60.568  49.826  36.488  0.00  0.00     0.210 HD
ENDBRANCH   2  35
BRANCH   4  37
ATOM     37  C6  MOL d          59.155  45.735  39.632  0.00  0.00     0.043 C 
ATOM     38  H16 MOL d          58.324  45.487  38.956  0.00  0.00     0.078 H 
ATOM     39  H17 MOL d          58.788  46.383  40.443  0.00  0.00     0.078 H 
BRANCH  37  40
ATOM     40  O6  MOL d          59.687  44.541  40.185  0.00  0.00    -0.398 OA
ATOM     41  H21 MOL d          59.065  44.174  40.801  0.00  0.00     0.209 HD
ENDBRANCH  37  40
ENDBRANCH   4  37
BRANCH   1  42
ATOM     42  O2  MOL d          62.589  48.059  35.897  0.00  0.00    -0.388 OA
ATOM     43  H19 MOL d          62.860  47.399  35.270  0.00  0.00     0.210 HD
ENDBRANCH   1  42
BRANCH   5  44
ATOM     44  O4  MOL d          61.660  45.421  35.799  0.00  0.00    -0.348 OA
BRANCH  44  45
ATOM     45  C4  MOL d          61.512  44.023  35.922  0.00  0.00     0.097 C 
ATOM     46  C5  MOL d          62.882  43.359  36.046  0.00  0.00     0.119 C 
ATOM     47  O5  MOL d          62.725  41.943  36.113  0.00  0.00    -0.195 OA
ATOM     48  H24 MOL d          63.488  43.638  35.171  0.00  0.00     0.094 H 
ATOM     49  N1  MOL d          62.178  41.453  34.881  0.00  0.00     0.042 N 
ATOM     50  C2  MOL d          60.824  41.951  34.711  0.00  0.00     0.135 C 
ATOM     51  H31 MOL d          62.750  41.768  34.112  0.00  0.00     0.315 HD
ATOM     52  H32 MOL d          62.164  40.445  34.898  0.00  0.00     0.315 HD
ATOM     53  C3  MOL d          60.846  43.483  34.656  0.00  0.00     0.088 C 
ATOM     54  H27 MOL d          60.401  41.556  33.776  0.00  0.00     0.084 H 
ATOM     55  H28 MOL d          60.204  41.625  35.560  0.00  0.00     0.084 H 
ATOM     56  H26 MOL d          61.408  43.829  33.775  0.00  0.00     0.089 H 
ATOM     57  H25 MOL d          60.899  43.790  36.805  0.00  0.00     0.091 H 
BRANCH  46  58
ATOM     58  C6  MOL d          63.625  43.720  37.317  0.00  0.00     0.045 C 
ATOM     59  H22 MOL d          64.053  42.807  37.757  0.00  0.00     0.078 H 
ATOM     60  H23 MOL d          62.922  44.175  38.030  0.00  0.00     0.078 H 
BRANCH  58  61
ATOM     61  O6  MOL d          64.677  44.646  37.039  0.00  0.00    -0.398 OA
ATOM     62  H29 MOL d          65.504  44.181  36.999  0.00  0.00     0.209 HD
ENDBRANCH  58  61
ENDBRANCH  46  58
BRANCH  53  63
ATOM     63  O3  MOL d          59.486  43.891  34.554  0.00  0.00    -0.391 OA
ATOM     64  H30 MOL d          59.102  43.515  33.771  0.00  0.00     0.210 HD
ENDBRANCH  53  63
ENDBRANCH  44  45
ENDBRANCH   5  44
TORSDOF 16
ENDMDL
MODEL 4
REMARK VINA RESULT:      -5.6      2.954      8.803
REMARK  16 active torsions:
REMARK  status: ('A' for Active; 'I' for Inactive)
REMARK    1  A    between atoms: C2_1  and  O2_7 
REMARK    2  A    between atoms: C3_2  and  O3_8 
REMARK    3  A    between atoms: C4_3  and  O4_9 
REMARK    4  A    between atoms: C5_4  and  C6_5 
REMARK    5  A    between atoms: C6_5  and  O6_11 
REMARK    6  A    between atoms: O4_20  and  C1_6 
REMARK    7  A    between atoms: C2_12  and  O2_18 
REMARK    8  A    between atoms: C3_13  and  O3_19 
REMARK    9  A    between atoms: C4_14  and  O4_20 
REMARK   10  A    between atoms: C5_15  and  C6_16 
REMARK   11  A    between atoms: C6_16  and  O6_22 
REMARK   12  A    between atoms: O4_30  and  C1_17 
REMARK   13  A    between atoms: C5_24  and  C6_23 
REMARK   14  A    between atoms: C6_23  and  O6_28 
REMARK   15  A    between atoms: C4_25  and  O4_30 
REMARK   16  A    between atoms: C3_26  and  O3_31 
ROOT
ATOM      1  C2  MOL d          57.404  47.008  38.825  0.00  0.00     0.110 C 
ATOM      2  C3  MOL d          58.503  46.128  39.411  0.00  0.00     0.092 C 
ATOM      3  C4  MOL d          59.756  46.269  38.561  0.00  0.00     0.096 C 
ATOM      4  C5  MOL d          60.137  47.748  38.540  0.00  0.00     0.089 C 
ATOM      5  C1  MOL d          57.892  48.445  38.695  0.00  0.00     0.159 C 
ATOM      6  O5  MOL d          59.084  48.482  37.931  0.00  0.00    -0.348 OA
ATOM      7  H12 MOL d          57.149  46.625  37.825  0.00  0.00     0.094 H 
ATOM      8  H13 MOL d          58.721  46.452  40.439  0.00  0.00     0.091 H 
ATOM      9  H14 MOL d          59.556  45.924  37.536  0.00  0.00     0.091 H 
ATOM     10  H15 MOL d          60.266  48.080  39.581  0.00  0.00     0.090 H 
ATOM     11  H18 MOL d          58.057  48.886  39.689  0.00  0.00     0.133 H 
ENDROOT
BRANCH   3  12
ATOM     12  O4  MOL d          60.799  45.486  39.128  0.00  0.00    -0.348 OA
BRANCH  12  13
ATOM     13  C1  MOL d          61.470  44.606  38.228  0.00  0.00     0.159 C 
ATOM     14  C2  MOL d          61.283  43.203  38.772  0.00  0.00     0.110 C 
ATOM     15  C3  MOL d          61.820  42.180  37.788  0.00  0.00     0.092 C 
ATOM     16  H1  MOL d          60.208  43.018  38.912  0.00  0.00     0.094 H 
ATOM     17  C4  MOL d          61.282  42.404  36.389  0.00  0.00     0.090 C 
ATOM     18  H2  MOL d          62.915  42.273  37.749  0.00  0.00     0.091 H 
ATOM     19  C5  MOL d          61.463  43.858  35.998  0.00  0.00     0.089 C 
ATOM     20  H3  MOL d          60.209  42.159  36.372  0.00  0.00     0.091 H 
ATOM     21  O5  MOL d          60.870  44.722  36.957  0.00  0.00    -0.348 OA
ATOM     22  H4  MOL d          62.544  44.062  35.963  0.00  0.00     0.090 H 
ATOM     23  H7  MOL d          62.540  44.854  38.163  0.00  0.00     0.133 H 
BRANCH  14  24
ATOM     24  O2  MOL d          61.926  43.097  40.034  0.00  0.00    -0.388 OA
ATOM     25  H8  MOL d          62.548  43.809  40.132  0.00  0.00     0.210 HD
ENDBRANCH  14  24
BRANCH  15  26
ATOM     26  O3  MOL d          61.491  40.893  38.266  0.00  0.00    -0.390 OA
ATOM     27  H9  MOL d          62.080  40.660  38.975  0.00  0.00     0.210 HD
ENDBRANCH  15  26
BRANCH  17  28
ATOM     28  O4  MOL d          61.958  41.569  35.476  0.00  0.00    -0.390 OA
ATOM     29  H10 MOL d          61.489  40.747  35.394  0.00  0.00     0.210 HD
ENDBRANCH  17  28
BRANCH  19  30
ATOM     30  C6  MOL d          60.878  44.187  34.647  0.00  0.00     0.043 C 
ATOM     31  H5  MOL d          61.598  43.920  33.859  0.00  0.00     0.078 H 
ATOM     32  H6  MOL d          60.658  45.264  34.593  0.00  0.00     0.078 H 
BRANCH  30  33
ATOM     33  O6  MOL d          59.686  43.453  34.464  0.00  0.00    -0.398 OA
ATOM     34  H11 MOL d          59.045  43.997  34.021  0.00  0.00     0.209 HD
ENDBRANCH  30  33
ENDBRANCH  19  30
ENDBRANCH  12  13
ENDBRANCH   3  12
BRANCH   2  35
ATOM     35  O3  MOL d          58.078  44.777  39.427  0.00  0.00    -0.390 OA
ATOM     36  H20 MOL d          58.825  44.213  39.594  0.00  0.00     0.210 HD
ENDBRANCH   2  35
BRANCH   4  37
ATOM     37  C6  MOL d          61.394  48.074  37.779  0.00  0.00     0.043 C 
ATOM     38  H16 MOL d          61.574  47.301  37.019  0.00  0.00     0.078 H 
ATOM     39  H17 MOL d          62.245  48.110  38.476  0.00  0.00     0.078 H 
BRANCH  37  40
ATOM     40  O6  MOL d          61.249  49.336  37.145  0.00  0.00    -0.398 OA
ATOM     41  H21 MOL d          61.660  50.006  37.678  0.00  0.00     0.209 HD
ENDBRANCH  37  40
ENDBRANCH   4  37
BRANCH   1  42
ATOM     42  O2  MOL d          56.242  46.985  39.628  0.00  0.00    -0.388 OA
ATOM     43  H19 MOL d          56.213  46.174  40.120  0.00  0.00     0.210 HD
ENDBRANCH   1  42
BRANCH   5  44
ATOM     44  O4  MOL d          56.937  49.149  37.995  0.00  0.00    -0.348 OA
BRANCH  44  45
ATOM     45  C4  MOL d          56.929  50.551  38.149  0.00  0.00     0.097 C 
ATOM     46  C5  MOL d          55.529  51.030  38.531  0.00  0.00     0.119 C 
ATOM     47  O5  MOL d          55.519  52.453  38.631  0.00  0.00    -0.195 OA
ATOM     48  H24 MOL d          54.820  50.692  37.761  0.00  0.00     0.094 H 
ATOM     49  N1  MOL d          55.778  53.035  37.345  0.00  0.00     0.042 N 
ATOM     50  C2  MOL d          57.134  52.719  36.928  0.00  0.00     0.135 C 
ATOM     51  H31 MOL d          55.126  52.664  36.672  0.00  0.00     0.315 HD
ATOM     52  H32 MOL d          55.670  54.035  37.403  0.00  0.00     0.315 HD
ATOM     53  C3  MOL d          57.293  51.199  36.812  0.00  0.00     0.088 C 
ATOM     54  H27 MOL d          57.335  53.185  35.952  0.00  0.00     0.084 H 
ATOM     55  H28 MOL d          57.846  53.106  37.672  0.00  0.00     0.084 H 
ATOM     56  H26 MOL d          56.634  50.801  36.025  0.00  0.00     0.089 H 
ATOM     57  H25 MOL d          57.652  50.844  38.925  0.00  0.00     0.091 H 
BRANCH  46  58
ATOM     58  C6  MOL d          55.069  50.550  39.894  0.00  0.00     0.045 C 
ATOM     59  H22 MOL d          54.210  51.156  40.220  0.00  0.00     0.078 H 
ATOM     60  H23 MOL d          55.892  50.665  40.615  0.00  0.00     0.078 H 
BRANCH  58  61
ATOM     61  O6  MOL d          54.681  49.176  39.839  0.00  0.00    -0.398 OA
ATOM     62  H29 MOL d          53.942  49.033  40.417  0.00  0.00     0.209 HD
ENDBRANCH  58  61
ENDBRANCH  46  58
BRANCH  53  63
ATOM     63  O3  MOL d          58.654  50.973  36.464  0.00  0.00    -0.391 OA
ATOM     64  H30 MOL d          59.001  51.744  36.031  0.00  0.00     0.210 HD
ENDBRANCH  53  63
ENDBRANCH  44  45
ENDBRANCH   5  44
TORSDOF 16
ENDMDL
MODEL 5
REMARK VINA RESULT:      -5.6      3.030      9.227
REMARK  16 active torsions:
REMARK  status: ('A' for Active; 'I' for Inactive)
REMARK    1  A    between atoms: C2_1  and  O2_7 
REMARK    2  A    between atoms: C3_2  and  O3_8 
REMARK    3  A    between atoms: C4_3  and  O4_9 
REMARK    4  A    between atoms: C5_4  and  C6_5 
REMARK    5  A    between atoms: C6_5  and  O6_11 
REMARK    6  A    between atoms: O4_20  and  C1_6 
REMARK    7  A    between atoms: C2_12  and  O2_18 
REMARK    8  A    between atoms: C3_13  and  O3_19 
REMARK    9  A    between atoms: C4_14  and  O4_20 
REMARK   10  A    between atoms: C5_15  and  C6_16 
REMARK   11  A    between atoms: C6_16  and  O6_22 
REMARK   12  A    between atoms: O4_30  and  C1_17 
REMARK   13  A    between atoms: C5_24  and  C6_23 
REMARK   14  A    between atoms: C6_23  and  O6_28 
REMARK   15  A    between atoms: C4_25  and  O4_30 
REMARK   16  A    between atoms: C3_26  and  O3_31 
ROOT
ATOM      1  C2  MOL d          57.223  47.602  38.497  0.00  0.00     0.110 C 
ATOM      2  C3  MOL d          58.366  46.688  38.924  0.00  0.00     0.092 C 
ATOM      3  C4  MOL d          59.528  46.864  37.959  0.00  0.00     0.096 C 
ATOM      4  C5  MOL d          59.922  48.339  37.972  0.00  0.00     0.089 C 
ATOM      5  C1  MOL d          57.712  49.041  38.388  0.00  0.00     0.159 C 
ATOM      6  O5  MOL d          58.821  49.109  37.510  0.00  0.00    -0.348 OA
ATOM      7  H12 MOL d          56.864  47.271  37.510  0.00  0.00     0.094 H 
ATOM      8  H13 MOL d          58.691  46.959  39.940  0.00  0.00     0.091 H 
ATOM      9  H14 MOL d          59.222  46.571  36.944  0.00  0.00     0.091 H 
ATOM     10  H15 MOL d          60.159  48.618  39.009  0.00  0.00     0.090 H 
ATOM     11  H18 MOL d          57.981  49.430  39.381  0.00  0.00     0.133 H 
ENDROOT
BRANCH   3  12
ATOM     12  O4  MOL d          60.615  46.047  38.379  0.00  0.00    -0.348 OA
BRANCH  12  13
ATOM     13  C1  MOL d          60.762  44.811  37.682  0.00  0.00     0.159 C 
ATOM     14  C2  MOL d          62.072  44.896  36.921  0.00  0.00     0.110 C 
ATOM     15  C3  MOL d          62.398  43.558  36.282  0.00  0.00     0.092 C 
ATOM     16  H1  MOL d          62.876  45.146  37.628  0.00  0.00     0.094 H 
ATOM     17  C4  MOL d          62.304  42.418  37.277  0.00  0.00     0.090 C 
ATOM     18  H2  MOL d          61.671  43.367  35.479  0.00  0.00     0.091 H 
ATOM     19  C5  MOL d          60.983  42.494  38.019  0.00  0.00     0.089 C 
ATOM     20  H3  MOL d          63.128  42.504  38.001  0.00  0.00     0.091 H 
ATOM     21  O5  MOL d          60.813  43.765  38.627  0.00  0.00    -0.348 OA
ATOM     22  H4  MOL d          60.179  42.345  37.283  0.00  0.00     0.090 H 
ATOM     23  H7  MOL d          59.924  44.651  36.988  0.00  0.00     0.133 H 
BRANCH  14  24
ATOM     24  O2  MOL d          61.987  45.929  35.950  0.00  0.00    -0.388 OA
ATOM     25  H8  MOL d          61.817  45.547  35.096  0.00  0.00     0.210 HD
ENDBRANCH  14  24
BRANCH  15  26
ATOM     26  O3  MOL d          63.688  43.642  35.715  0.00  0.00    -0.390 OA
ATOM     27  H9  MOL d          64.279  43.070  36.190  0.00  0.00     0.210 HD
ENDBRANCH  15  26
BRANCH  17  28
ATOM     28  O4  MOL d          62.411  41.184  36.603  0.00  0.00    -0.390 OA
ATOM     29  H10 MOL d          61.750  41.138  35.922  0.00  0.00     0.210 HD
ENDBRANCH  17  28
BRANCH  19  30
ATOM     30  C6  MOL d          60.843  41.440  39.090  0.00  0.00     0.043 C 
ATOM     31  H5  MOL d          60.260  40.593  38.698  0.00  0.00     0.078 H 
ATOM     32  H6  MOL d          60.327  41.869  39.962  0.00  0.00     0.078 H 
BRANCH  30  33
ATOM     33  O6  MOL d          62.126  40.993  39.474  0.00  0.00    -0.398 OA
ATOM     34  H11 MOL d          62.196  41.013  40.421  0.00  0.00     0.209 HD
ENDBRANCH  30  33
ENDBRANCH  19  30
ENDBRANCH  12  13
ENDBRANCH   3  12
BRANCH   2  35
ATOM     35  O3  MOL d          57.931  45.340  38.917  0.00  0.00    -0.390 OA
ATOM     36  H20 MOL d          58.678  44.766  39.040  0.00  0.00     0.210 HD
ENDBRANCH   2  35
BRANCH   4  37
ATOM     37  C6  MOL d          61.099  48.696  37.105  0.00  0.00     0.043 C 
ATOM     38  H16 MOL d          61.139  49.787  36.972  0.00  0.00     0.078 H 
ATOM     39  H17 MOL d          60.991  48.210  36.123  0.00  0.00     0.078 H 
BRANCH  37  40
ATOM     40  O6  MOL d          62.295  48.250  37.724  0.00  0.00    -0.398 OA
ATOM     41  H21 MOL d          63.042  48.647  37.292  0.00  0.00     0.209 HD
ENDBRANCH  37  40
ENDBRANCH   4  37
BRANCH   1  42
ATOM     42  O2  MOL d          56.148  47.546  39.411  0.00  0.00    -0.388 OA
ATOM     43  H19 MOL d          56.423  47.910  40.244  0.00  0.00     0.210 HD
ENDBRANCH   1  42
BRANCH   5  44
ATOM     44  O4  MOL d          56.698  49.785  37.824  0.00  0.00    -0.348 OA
BRANCH  44  45
ATOM     45  C4  MOL d          56.732  51.180  38.030  0.00  0.00     0.097 C 
ATOM     46  C5  MOL d          55.360  51.679  38.479  0.00  0.00     0.119 C 
ATOM     47  O5  MOL d          55.390  53.096  38.631  0.00  0.00    -0.195 OA
ATOM     48  H24 MOL d          54.616  51.388  37.722  0.00  0.00     0.094 H 
ATOM     49  N1  MOL d          55.620  53.720  37.359  0.00  0.00     0.042 N 
ATOM     50  C2  MOL d          56.952  53.386  36.883  0.00  0.00     0.135 C 
ATOM     51  H31 MOL d          54.936  53.391  36.696  0.00  0.00     0.315 HD
ATOM     52  H32 MOL d          55.541  54.720  37.457  0.00  0.00     0.315 HD
ATOM     53  C3  MOL d          57.067  51.868  36.706  0.00  0.00     0.088 C 
ATOM     54  H27 MOL d          57.132  53.883  35.918  0.00  0.00     0.084 H 
ATOM     55  H28 MOL d          57.700  53.727  37.615  0.00  0.00     0.084 H 
ATOM     56  H26 MOL d          56.372  51.517  35.929  0.00  0.00     0.089 H 
ATOM     57  H25 MOL d          57.489  51.425  38.790  0.00  0.00     0.091 H 
BRANCH  46  58
ATOM     58  C6  MOL d          54.934  51.159  39.838  0.00  0.00     0.045 C 
ATOM     59  H22 MOL d          54.081  50.476  39.714  0.00  0.00     0.078 H 
ATOM     60  H23 MOL d          54.635  52.007  40.472  0.00  0.00     0.078 H 
BRANCH  58  61
ATOM     61  O6  MOL d          56.009  50.459  40.468  0.00  0.00    -0.398 OA
ATOM     62  H29 MOL d          56.642  50.197  39.811  0.00  0.00     0.209 HD
ENDBRANCH  58  61
ENDBRANCH  46  58
BRANCH  53  63
ATOM     63  O3  MOL d          58.409  51.621  36.302  0.00  0.00    -0.391 OA
ATOM     64  H30 MOL d          58.997  52.175  36.804  0.00  0.00     0.210 HD
ENDBRANCH  53  63
ENDBRANCH  44  45
ENDBRANCH   5  44
TORSDOF 16
ENDMDL
MODEL 6
REMARK VINA RESULT:      -5.5      2.989      8.740
REMARK  16 active torsions:
REMARK  status: ('A' for Active; 'I' for Inactive)
REMARK    1  A    between atoms: C2_1  and  O2_7 
REMARK    2  A    between atoms: C3_2  and  O3_8 
REMARK    3  A    between atoms: C4_3  and  O4_9 
REMARK    4  A    between atoms: C5_4  and  C6_5 
REMARK    5  A    between atoms: C6_5  and  O6_11 
REMARK    6  A    between atoms: O4_20  and  C1_6 
REMARK    7  A    between atoms: C2_12  and  O2_18 
REMARK    8  A    between atoms: C3_13  and  O3_19 
REMARK    9  A    between atoms: C4_14  and  O4_20 
REMARK   10  A    between atoms: C5_15  and  C6_16 
REMARK   11  A    between atoms: C6_16  and  O6_22 
REMARK   12  A    between atoms: O4_30  and  C1_17 
REMARK   13  A    between atoms: C5_24  and  C6_23 
REMARK   14  A    between atoms: C6_23  and  O6_28 
REMARK   15  A    between atoms: C4_25  and  O4_30 
REMARK   16  A    between atoms: C3_26  and  O3_31 
ROOT
ATOM      1  C2  MOL d          57.243  46.661  38.716  0.00  0.00     0.110 C 
ATOM      2  C3  MOL d          58.401  45.878  39.324  0.00  0.00     0.092 C 
ATOM      3  C4  MOL d          59.654  46.128  38.500  0.00  0.00     0.096 C 
ATOM      4  C5  MOL d          59.908  47.634  38.488  0.00  0.00     0.089 C 
ATOM      5  C1  MOL d          57.609  48.135  38.596  0.00  0.00     0.159 C 
ATOM      6  O5  MOL d          58.809  48.276  37.857  0.00  0.00    -0.348 OA
ATOM      7  H12 MOL d          57.042  46.261  37.711  0.00  0.00     0.094 H 
ATOM      8  H13 MOL d          58.569  46.218  40.357  0.00  0.00     0.091 H 
ATOM      9  H14 MOL d          59.506  45.769  37.472  0.00  0.00     0.091 H 
ATOM     10  H15 MOL d          59.987  47.974  39.530  0.00  0.00     0.090 H 
ATOM     11  H18 MOL d          57.715  48.587  39.594  0.00  0.00     0.133 H 
ENDROOT
BRANCH   3  12
ATOM     12  O4  MOL d          60.749  45.436  39.089  0.00  0.00    -0.348 OA
BRANCH  12  13
ATOM     13  C1  MOL d          61.458  44.551  38.223  0.00  0.00     0.159 C 
ATOM     14  C2  MOL d          61.319  43.161  38.814  0.00  0.00     0.110 C 
ATOM     15  C3  MOL d          61.899  42.126  37.869  0.00  0.00     0.092 C 
ATOM     16  H1  MOL d          60.250  42.942  38.954  0.00  0.00     0.094 H 
ATOM     17  C4  MOL d          61.362  42.283  36.459  0.00  0.00     0.090 C 
ATOM     18  H2  MOL d          62.990  42.257  37.832  0.00  0.00     0.091 H 
ATOM     19  C5  MOL d          61.493  43.728  36.020  0.00  0.00     0.089 C 
ATOM     20  H3  MOL d          60.300  41.998  36.445  0.00  0.00     0.091 H 
ATOM     21  O5  MOL d          60.863  44.601  36.945  0.00  0.00    -0.348 OA
ATOM     22  H4  MOL d          62.566  43.969  35.984  0.00  0.00     0.090 H 
ATOM     23  H7  MOL d          62.518  44.836  38.156  0.00  0.00     0.133 H 
BRANCH  14  24
ATOM     24  O2  MOL d          61.956  43.122  40.083  0.00  0.00    -0.388 OA
ATOM     25  H8  MOL d          62.830  42.761  39.986  0.00  0.00     0.210 HD
ENDBRANCH  14  24
BRANCH  15  26
ATOM     26  O3  MOL d          61.614  40.845  38.389  0.00  0.00    -0.390 OA
ATOM     27  H9  MOL d          61.922  40.182  37.782  0.00  0.00     0.210 HD
ENDBRANCH  15  26
BRANCH  17  28
ATOM     28  O4  MOL d          62.075  41.442  35.580  0.00  0.00    -0.390 OA
ATOM     29  H10 MOL d          62.771  41.005  36.056  0.00  0.00     0.210 HD
ENDBRANCH  17  28
BRANCH  19  30
ATOM     30  C6  MOL d          60.905  43.989  34.655  0.00  0.00     0.043 C 
ATOM     31  H5  MOL d          61.009  45.056  34.408  0.00  0.00     0.078 H 
ATOM     32  H6  MOL d          59.840  43.714  34.655  0.00  0.00     0.078 H 
BRANCH  30  33
ATOM     33  O6  MOL d          61.593  43.215  33.696  0.00  0.00    -0.398 OA
ATOM     34  H11 MOL d          61.923  43.783  33.010  0.00  0.00     0.209 HD
ENDBRANCH  30  33
ENDBRANCH  19  30
ENDBRANCH  12  13
ENDBRANCH   3  12
BRANCH   2  35
ATOM     35  O3  MOL d          58.093  44.496  39.332  0.00  0.00    -0.390 OA
ATOM     36  H20 MOL d          58.706  44.033  38.772  0.00  0.00     0.210 HD
ENDBRANCH   2  35
BRANCH   4  37
ATOM     37  C6  MOL d          61.148  48.068  37.753  0.00  0.00     0.043 C 
ATOM     38  H16 MOL d          61.233  47.505  36.812  0.00  0.00     0.078 H 
ATOM     39  H17 MOL d          62.031  47.874  38.379  0.00  0.00     0.078 H 
BRANCH  37  40
ATOM     40  O6  MOL d          61.066  49.456  37.467  0.00  0.00    -0.398 OA
ATOM     41  H21 MOL d          61.093  49.947  38.279  0.00  0.00     0.209 HD
ENDBRANCH  37  40
ENDBRANCH   4  37
BRANCH   1  42
ATOM     42  O2  MOL d          56.071  46.538  39.495  0.00  0.00    -0.388 OA
ATOM     43  H19 MOL d          56.303  46.265  40.374  0.00  0.00     0.210 HD
ENDBRANCH   1  42
BRANCH   5  44
ATOM     44  O4  MOL d          56.611  48.757  37.876  0.00  0.00    -0.348 OA
BRANCH  44  45
ATOM     45  C4  MOL d          56.115  49.976  38.384  0.00  0.00     0.097 C 
ATOM     46  C5  MOL d          57.178  51.067  38.261  0.00  0.00     0.119 C 
ATOM     47  O5  MOL d          56.688  52.280  38.827  0.00  0.00    -0.195 OA
ATOM     48  H24 MOL d          58.085  50.735  38.787  0.00  0.00     0.094 H 
ATOM     49  N1  MOL d          56.481  52.114  40.237  0.00  0.00     0.042 N 
ATOM     50  C2  MOL d          55.410  51.159  40.466  0.00  0.00     0.135 C 
ATOM     51  H31 MOL d          57.330  51.774  40.662  0.00  0.00     0.315 HD
ATOM     52  H32 MOL d          56.232  53.001  40.646  0.00  0.00     0.315 HD
ATOM     53  C3  MOL d          55.799  49.801  39.870  0.00  0.00     0.088 C 
ATOM     54  H27 MOL d          55.241  51.050  41.548  0.00  0.00     0.084 H 
ATOM     55  H28 MOL d          54.488  51.519  39.986  0.00  0.00     0.084 H 
ATOM     56  H26 MOL d          56.683  49.393  40.384  0.00  0.00     0.089 H 
ATOM     57  H25 MOL d          55.209  50.268  37.833  0.00  0.00     0.091 H 
BRANCH  46  58
ATOM     58  C6  MOL d          57.522  51.427  36.829  0.00  0.00     0.045 C 
ATOM     59  H22 MOL d          57.711  52.509  36.764  0.00  0.00     0.078 H 
ATOM     60  H23 MOL d          56.677  51.164  36.176  0.00  0.00     0.078 H 
BRANCH  58  61
ATOM     61  O6  MOL d          58.686  50.719  36.398  0.00  0.00    -0.398 OA
ATOM     62  H29 MOL d          58.589  49.797  36.604  0.00  0.00     0.209 HD
ENDBRANCH  58  61
ENDBRANCH  46  58
BRANCH  53  63
ATOM     63  O3  MOL d          54.680  48.946  40.079  0.00  0.00    -0.391 OA
ATOM     64  H30 MOL d          54.212  49.224  40.858  0.00  0.00     0.210 HD
ENDBRANCH  53  63
ENDBRANCH  44  45
ENDBRANCH   5  44
TORSDOF 16
ENDMDL
MODEL 7
REMARK VINA RESULT:      -5.3      2.979      9.143
REMARK  16 active torsions:
REMARK  status: ('A' for Active; 'I' for Inactive)
REMARK    1  A    between atoms: C2_1  and  O2_7 
REMARK    2  A    between atoms: C3_2  and  O3_8 
REMARK    3  A    between atoms: C4_3  and  O4_9 
REMARK    4  A    between atoms: C5_4  and  C6_5 
REMARK    5  A    between atoms: C6_5  and  O6_11 
REMARK    6  A    between atoms: O4_20  and  C1_6 
REMARK    7  A    between atoms: C2_12  and  O2_18 
REMARK    8  A    between atoms: C3_13  and  O3_19 
REMARK    9  A    between atoms: C4_14  and  O4_20 
REMARK   10  A    between atoms: C5_15  and  C6_16 
REMARK   11  A    between atoms: C6_16  and  O6_22 
REMARK   12  A    between atoms: O4_30  and  C1_17 
REMARK   13  A    between atoms: C5_24  and  C6_23 
REMARK   14  A    between atoms: C6_23  and  O6_28 
REMARK   15  A    between atoms: C4_25  and  O4_30 
REMARK   16  A    between atoms: C3_26  and  O3_31 
ROOT
ATOM      1  C2  MOL d          57.169  47.810  38.288  0.00  0.00     0.110 C 
ATOM      2  C3  MOL d          58.256  46.837  38.730  0.00  0.00     0.092 C 
ATOM      3  C4  MOL d          59.485  47.037  37.858  0.00  0.00     0.096 C 
ATOM      4  C5  MOL d          59.916  48.496  37.993  0.00  0.00     0.089 C 
ATOM      5  C1  MOL d          57.702  49.238  38.305  0.00  0.00     0.159 C 
ATOM      6  O5  MOL d          58.870  49.327  37.509  0.00  0.00    -0.348 OA
ATOM      7  H12 MOL d          56.870  47.554  37.260  0.00  0.00     0.094 H 
ATOM      8  H13 MOL d          58.517  47.033  39.781  0.00  0.00     0.091 H 
ATOM      9  H14 MOL d          59.242  46.818  36.808  0.00  0.00     0.091 H 
ATOM     10  H15 MOL d          60.089  48.702  39.060  0.00  0.00     0.090 H 
ATOM     11  H18 MOL d          57.913  49.556  39.337  0.00  0.00     0.133 H 
ENDROOT
BRANCH   3  12
ATOM     12  O4  MOL d          60.519  46.162  38.296  0.00  0.00    -0.348 OA
BRANCH  12  13
ATOM     13  C1  MOL d          60.674  44.963  37.539  0.00  0.00     0.159 C 
ATOM     14  C2  MOL d          61.977  45.098  36.774  0.00  0.00     0.110 C 
ATOM     15  C3  MOL d          62.311  43.797  36.069  0.00  0.00     0.092 C 
ATOM     16  H1  MOL d          62.783  45.323  37.488  0.00  0.00     0.094 H 
ATOM     17  C4  MOL d          62.236  42.609  37.008  0.00  0.00     0.090 C 
ATOM     18  H2  MOL d          61.581  43.638  35.262  0.00  0.00     0.091 H 
ATOM     19  C5  MOL d          60.920  42.635  37.761  0.00  0.00     0.089 C 
ATOM     20  H3  MOL d          63.064  42.668  37.730  0.00  0.00     0.091 H 
ATOM     21  O5  MOL d          60.741  43.873  38.431  0.00  0.00    -0.348 OA
ATOM     22  H4  MOL d          60.112  42.514  37.024  0.00  0.00     0.090 H 
ATOM     23  H7  MOL d          59.832  44.828  36.843  0.00  0.00     0.133 H 
BRANCH  14  24
ATOM     24  O2  MOL d          61.875  46.177  35.855  0.00  0.00    -0.388 OA
ATOM     25  H8  MOL d          62.744  46.417  35.554  0.00  0.00     0.210 HD
ENDBRANCH  14  24
BRANCH  15  26
ATOM     26  O3  MOL d          63.596  43.922  35.498  0.00  0.00    -0.390 OA
ATOM     27  H9  MOL d          63.669  44.766  35.067  0.00  0.00     0.210 HD
ENDBRANCH  15  26
BRANCH  17  28
ATOM     28  O4  MOL d          62.351  41.411  36.273  0.00  0.00    -0.390 OA
ATOM     29  H10 MOL d          61.485  41.110  36.022  0.00  0.00     0.210 HD
ENDBRANCH  17  28
BRANCH  19  30
ATOM     30  C6  MOL d          60.798  41.529  38.780  0.00  0.00     0.043 C 
ATOM     31  H5  MOL d          60.305  40.659  38.321  0.00  0.00     0.078 H 
ATOM     32  H6  MOL d          60.200  41.881  39.634  0.00  0.00     0.078 H 
BRANCH  30  33
ATOM     33  O6  MOL d          62.086  41.161  39.225  0.00  0.00    -0.398 OA
ATOM     34  H11 MOL d          62.023  40.378  39.760  0.00  0.00     0.209 HD
ENDBRANCH  30  33
ENDBRANCH  19  30
ENDBRANCH  12  13
ENDBRANCH   3  12
BRANCH   2  35
ATOM     35  O3  MOL d          57.786  45.506  38.607  0.00  0.00    -0.390 OA
ATOM     36  H20 MOL d          56.842  45.493  38.715  0.00  0.00     0.210 HD
ENDBRANCH   2  35
BRANCH   4  37
ATOM     37  C6  MOL d          61.159  48.869  37.231  0.00  0.00     0.043 C 
ATOM     38  H16 MOL d          61.227  49.964  37.156  0.00  0.00     0.078 H 
ATOM     39  H17 MOL d          61.115  48.434  36.222  0.00  0.00     0.078 H 
BRANCH  37  40
ATOM     40  O6  MOL d          62.300  48.370  37.913  0.00  0.00    -0.398 OA
ATOM     41  H21 MOL d          62.572  47.552  37.515  0.00  0.00     0.209 HD
ENDBRANCH  37  40
ENDBRANCH   4  37
BRANCH   1  42
ATOM     42  O2  MOL d          56.033  47.731  39.122  0.00  0.00    -0.388 OA
ATOM     43  H19 MOL d          55.255  47.623  38.588  0.00  0.00     0.210 HD
ENDBRANCH   1  42
BRANCH   5  44
ATOM     44  O4  MOL d          56.749  50.047  37.724  0.00  0.00    -0.348 OA
BRANCH  44  45
ATOM     45  C4  MOL d          56.537  51.313  38.308  0.00  0.00     0.097 C 
ATOM     46  C5  MOL d          57.530  52.326  37.741  0.00  0.00     0.119 C 
ATOM     47  O5  MOL d          57.344  53.588  38.378  0.00  0.00    -0.195 OA
ATOM     48  H24 MOL d          58.550  51.953  37.914  0.00  0.00     0.094 H 
ATOM     49  N1  MOL d          57.667  53.485  39.772  0.00  0.00     0.042 N 
ATOM     50  C2  MOL d          56.713  52.611  40.433  0.00  0.00     0.135 C 
ATOM     51  H31 MOL d          58.595  53.104  39.873  0.00  0.00     0.315 HD
ATOM     52  H32 MOL d          57.631  54.400  40.193  0.00  0.00     0.315 HD
ATOM     53  C3  MOL d          56.787  51.211  39.814  0.00  0.00     0.088 C 
ATOM     54  H27 MOL d          56.952  52.551  41.505  0.00  0.00     0.084 H 
ATOM     55  H28 MOL d          55.697  53.015  40.307  0.00  0.00     0.084 H 
ATOM     56  H26 MOL d          57.777  50.764  39.988  0.00  0.00     0.089 H 
ATOM     57  H25 MOL d          55.507  51.645  38.113  0.00  0.00     0.091 H 
BRANCH  46  58
ATOM     58  C6  MOL d          57.335  52.613  36.264  0.00  0.00     0.045 C 
ATOM     59  H22 MOL d          56.333  53.039  36.108  0.00  0.00     0.078 H 
ATOM     60  H23 MOL d          57.427  51.675  35.698  0.00  0.00     0.078 H 
BRANCH  58  61
ATOM     61  O6  MOL d          58.318  53.540  35.799  0.00  0.00    -0.398 OA
ATOM     62  H29 MOL d          58.818  53.867  36.537  0.00  0.00     0.209 HD
ENDBRANCH  58  61
ENDBRANCH  46  58
BRANCH  53  63
ATOM     63  O3  MOL d          55.785  50.440  40.468  0.00  0.00    -0.391 OA
ATOM     64  H30 MOL d          55.487  49.750  39.886  0.00  0.00     0.210 HD
ENDBRANCH  53  63
ENDBRANCH  44  45
ENDBRANCH   5  44
TORSDOF 16
ENDMDL
MODEL 8
REMARK VINA RESULT:      -5.1      3.033      8.801
REMARK  16 active torsions:
REMARK  status: ('A' for Active; 'I' for Inactive)
REMARK    1  A    between atoms: C2_1  and  O2_7 
REMARK    2  A    between atoms: C3_2  and  O3_8 
REMARK    3  A    between atoms: C4_3  and  O4_9 
REMARK    4  A    between atoms: C5_4  and  C6_5 
REMARK    5  A    between atoms: C6_5  and  O6_11 
REMARK    6  A    between atoms: O4_20  and  C1_6 
REMARK    7  A    between atoms: C2_12  and  O2_18 
REMARK    8  A    between atoms: C3_13  and  O3_19 
REMARK    9  A    between atoms: C4_14  and  O4_20 
REMARK   10  A    between atoms: C5_15  and  C6_16 
REMARK   11  A    between atoms: C6_16  and  O6_22 
REMARK   12  A    between atoms: O4_30  and  C1_17 
REMARK   13  A    between atoms: C5_24  and  C6_23 
REMARK   14  A    between atoms: C6_23  and  O6_28 
REMARK   15  A    between atoms: C4_25  and  O4_30 
REMARK   16  A    between atoms: C3_26  and  O3_31 
ROOT
ATOM      1  C2  MOL d          59.353  49.469  37.217  0.00  0.00     0.110 C 
ATOM      2  C3  MOL d          59.497  48.080  36.605  0.00  0.00     0.092 C 
ATOM      3  C4  MOL d          58.920  47.053  37.566  0.00  0.00     0.096 C 
ATOM      4  C5  MOL d          57.463  47.430  37.828  0.00  0.00     0.089 C 
ATOM      5  C1  MOL d          57.900  49.733  37.589  0.00  0.00     0.159 C 
ATOM      6  O5  MOL d          57.427  48.709  38.446  0.00  0.00    -0.348 OA
ATOM      7  H12 MOL d          59.969  49.512  38.128  0.00  0.00     0.094 H 
ATOM      8  H13 MOL d          58.944  48.041  35.654  0.00  0.00     0.091 H 
ATOM      9  H14 MOL d          59.481  47.066  38.512  0.00  0.00     0.091 H 
ATOM     10  H15 MOL d          56.944  47.473  36.859  0.00  0.00     0.090 H 
ATOM     11  H18 MOL d          57.277  49.797  36.685  0.00  0.00     0.133 H 
ENDROOT
BRANCH   3  12
ATOM     12  O4  MOL d          59.009  45.759  36.981  0.00  0.00    -0.348 OA
BRANCH  12  13
ATOM     13  C1  MOL d          60.332  45.279  36.746  0.00  0.00     0.159 C 
ATOM     14  C2  MOL d          60.735  44.496  37.981  0.00  0.00     0.110 C 
ATOM     15  C3  MOL d          62.065  43.802  37.755  0.00  0.00     0.092 C 
ATOM     16  H1  MOL d          59.973  43.727  38.176  0.00  0.00     0.094 H 
ATOM     17  C4  MOL d          62.080  43.014  36.460  0.00  0.00     0.090 C 
ATOM     18  H2  MOL d          62.853  44.567  37.695  0.00  0.00     0.091 H 
ATOM     19  C5  MOL d          61.587  43.889  35.323  0.00  0.00     0.089 C 
ATOM     20  H3  MOL d          61.413  42.145  36.560  0.00  0.00     0.091 H 
ATOM     21  O5  MOL d          60.310  44.434  35.617  0.00  0.00    -0.348 OA
ATOM     22  H4  MOL d          62.304  44.716  35.205  0.00  0.00     0.090 H 
ATOM     23  H7  MOL d          61.027  46.114  36.577  0.00  0.00     0.133 H 
BRANCH  14  24
ATOM     24  O2  MOL d          60.788  45.371  39.099  0.00  0.00    -0.388 OA
ATOM     25  H8  MOL d          59.905  45.555  39.398  0.00  0.00     0.210 HD
ENDBRANCH  14  24
BRANCH  15  26
ATOM     26  O3  MOL d          62.325  42.972  38.867  0.00  0.00    -0.390 OA
ATOM     27  H9  MOL d          62.793  42.197  38.579  0.00  0.00     0.210 HD
ENDBRANCH  15  26
BRANCH  17  28
ATOM     28  O4  MOL d          63.388  42.561  36.191  0.00  0.00    -0.390 OA
ATOM     29  H10 MOL d          63.975  42.867  36.872  0.00  0.00     0.210 HD
ENDBRANCH  17  28
BRANCH  19  30
ATOM     30  C6  MOL d          61.492  43.155  34.009  0.00  0.00     0.043 C 
ATOM     31  H5  MOL d          62.497  43.046  33.575  0.00  0.00     0.078 H 
ATOM     32  H6  MOL d          60.853  43.723  33.316  0.00  0.00     0.078 H 
BRANCH  30  33
ATOM     33  O6  MOL d          60.933  41.878  34.227  0.00  0.00    -0.398 OA
ATOM     34  H11 MOL d          60.866  41.416  33.399  0.00  0.00     0.209 HD
ENDBRANCH  30  33
ENDBRANCH  19  30
ENDBRANCH  12  13
ENDBRANCH   3  12
BRANCH   2  35
ATOM     35  O3  MOL d          60.864  47.801  36.362  0.00  0.00    -0.390 OA
ATOM     36  H20 MOL d          61.394  48.527  36.672  0.00  0.00     0.210 HD
ENDBRANCH   2  35
BRANCH   4  37
ATOM     37  C6  MOL d          56.710  46.489  38.728  0.00  0.00     0.043 C 
ATOM     38  H16 MOL d          56.123  45.788  38.117  0.00  0.00     0.078 H 
ATOM     39  H17 MOL d          56.034  47.065  39.377  0.00  0.00     0.078 H 
BRANCH  37  40
ATOM     40  O6  MOL d          57.629  45.761  39.528  0.00  0.00    -0.398 OA
ATOM     41  H21 MOL d          57.712  46.183  40.376  0.00  0.00     0.209 HD
ENDBRANCH  37  40
ENDBRANCH   4  37
BRANCH   1  42
ATOM     42  O2  MOL d          59.792  50.474  36.326  0.00  0.00    -0.388 OA
ATOM     43  H19 MOL d          59.835  50.119  35.446  0.00  0.00     0.210 HD
ENDBRANCH   1  42
BRANCH   5  44
ATOM     44  O4  MOL d          57.859  50.912  38.302  0.00  0.00    -0.348 OA
BRANCH  44  45
ATOM     45  C4  MOL d          56.616  51.576  38.375  0.00  0.00     0.097 C 
ATOM     46  C5  MOL d          56.726  52.967  37.751  0.00  0.00     0.119 C 
ATOM     47  O5  MOL d          55.482  53.651  37.879  0.00  0.00    -0.195 OA
ATOM     48  H24 MOL d          57.526  53.520  38.265  0.00  0.00     0.094 H 
ATOM     49  N1  MOL d          55.192  53.882  39.265  0.00  0.00     0.042 N 
ATOM     50  C2  MOL d          54.969  52.613  39.938  0.00  0.00     0.135 C 
ATOM     51  H31 MOL d          55.970  54.357  39.695  0.00  0.00     0.315 HD
ATOM     52  H32 MOL d          54.364  54.452  39.343  0.00  0.00     0.315 HD
ATOM     53  C3  MOL d          56.237  51.756  39.845  0.00  0.00     0.088 C 
ATOM     54  H27 MOL d          54.727  52.797  40.996  0.00  0.00     0.084 H 
ATOM     55  H28 MOL d          54.133  52.084  39.457  0.00  0.00     0.084 H 
ATOM     56  H26 MOL d          57.069  52.239  40.379  0.00  0.00     0.089 H 
ATOM     57  H25 MOL d          55.848  50.988  37.851  0.00  0.00     0.091 H 
BRANCH  46  58
ATOM     58  C6  MOL d          56.998  52.948  36.259  0.00  0.00     0.045 C 
ATOM     59  H22 MOL d          56.616  53.877  35.810  0.00  0.00     0.078 H 
ATOM     60  H23 MOL d          56.484  52.086  35.808  0.00  0.00     0.078 H 
BRANCH  58  61
ATOM     61  O6  MOL d          58.400  52.844  36.004  0.00  0.00    -0.398 OA
ATOM     62  H29 MOL d          58.559  52.925  35.071  0.00  0.00     0.209 HD
ENDBRANCH  58  61
ENDBRANCH  46  58
BRANCH  53  63
ATOM     63  O3  MOL d          55.918  50.516  40.468  0.00  0.00    -0.391 OA
ATOM     64  H30 MOL d          55.226  50.652  41.106  0.00  0.00     0.210 HD
ENDBRANCH  53  63
ENDBRANCH  44  45
ENDBRANCH   5  44
TORSDOF 16
ENDMDL
