REMARK  6 active torsions:
REMARK  status: ('A' for Active; 'I' for Inactive)
REMARK    1  A    between atoms: CAX_6  and  CAW_7 
REMARK       I    between atoms: CAW_7  and  NAR_9 
REMARK    2  A    between atoms: CAO_16  and  CAN_18 
REMARK    3  A    between atoms: CAN_18  and  CAL_19 
REMARK    4  A    between atoms: CAL_19  and  NAM_20 
REMARK    5  A    between atoms: CAL_19  and  CAK_21 
REMARK    6  A    between atoms: CAK_21  and  CAG_22 
ROOT
ATOM      1  CAW KR2 d          -4.008   2.821  -7.395  0.00  0.00     0.250 C 
ATOM      2  OAA KR2 d          -2.580   2.891  -7.484  0.00  0.00    -0.199 OA
ATOM      3  NAR KR2 d          -4.598   4.132  -7.076  0.00  0.00    -0.181 NA
ATOM      4  CAV KR2 d          -5.341   4.629  -8.246  0.00  0.00     0.001 C 
ATOM      5  CDD KR2 d          -5.078   6.096  -8.593  0.00  0.00    -0.052 C 
ATOM      6  CNN KR2 d          -3.696   6.332  -9.207  0.00  0.00    -0.062 C 
ATOM      7  CAT KR2 d          -2.594   6.515  -8.158  0.00  0.00    -0.049 C 
ATOM      8  CAS KR2 d          -2.373   5.273  -7.287  0.00  0.00     0.013 C 
ATOM      9  NAQ KR2 d          -3.616   4.930  -6.575  0.00  0.00    -0.288 N 
ATOM     10  CAO KR2 d          -3.980   5.609  -5.493  0.00  0.00     0.170 C 
ATOM     11  OAP KR2 d          -5.263   5.688  -5.056  0.00  0.00    -0.176 OA
ATOM     12  H6  KR2 d          -6.416   4.512  -8.045  0.00  0.00     0.058 H 
ATOM     13  H7  KR2 d          -5.062   4.016  -9.115  0.00  0.00     0.058 H 
ATOM     14  H8  KR2 d          -5.158   6.693  -7.672  0.00  0.00     0.034 H 
ATOM     15  H9  KR2 d          -5.841   6.427  -9.312  0.00  0.00     0.034 H 
ATOM     16  H10 KR2 d          -3.740   7.238  -9.830  0.00  0.00     0.033 H 
ATOM     17  H11 KR2 d          -3.440   5.466  -9.836  0.00  0.00     0.033 H 
ATOM     18  H12 KR2 d          -2.871   7.355  -7.504  0.00  0.00     0.035 H 
ATOM     19  H13 KR2 d          -1.653   6.749  -8.677  0.00  0.00     0.035 H 
ATOM     20  H14 KR2 d          -1.578   5.478  -6.555  0.00  0.00     0.066 H 
ATOM     21  H15 KR2 d          -2.074   4.429  -7.926  0.00  0.00     0.066 H 
ENDROOT
BRANCH  10  22
ATOM     22  CAN KR2 d          -2.932   6.422  -4.738  0.00  0.00     0.025 C 
ATOM     23  H16 KR2 d          -2.872   7.430  -5.174  0.00  0.00     0.048 H 
ATOM     24  H17 KR2 d          -1.954   5.925  -4.827  0.00  0.00     0.048 H 
BRANCH  22  25
ATOM     25  CAL KR2 d          -3.309   6.533  -3.261  0.00  0.00     0.111 C 
ATOM     26  H18 KR2 d          -4.395   6.686  -3.175  0.00  0.00     0.085 H 
BRANCH  25  27
ATOM     27  NAM KR2 d          -2.542   7.666  -2.726  0.00  0.00    -0.074 N 
ATOM     28  H19 KR2 d          -2.755   7.784  -1.748  0.00  0.00     0.274 HD
ATOM     29  H20 KR2 d          -2.788   8.505  -3.227  0.00  0.00     0.274 HD
ATOM     30  H21 KR2 d          -1.556   7.486  -2.836  0.00  0.00     0.274 HD
ENDBRANCH  25  27
BRANCH  25  31
ATOM     31  CAK KR2 d          -2.866   5.393  -2.345  0.00  0.00    -0.011 C 
ATOM     32  H22 KR2 d          -1.802   5.564  -2.125  0.00  0.00     0.043 H 
ATOM     33  H23 KR2 d          -2.976   4.465  -2.926  0.00  0.00     0.043 H 
BRANCH  31  34
ATOM     34  CAG KR2 d          -3.491   5.170  -1.122  0.00  0.00    -0.015 A 
ATOM     35  CAH KR2 d          -4.528   5.989  -0.703  0.00  0.00    -0.034 A 
ATOM     36  CAC KR2 d          -5.021   5.943   0.599  0.00  0.00     0.155 A 
ATOM     37  H24 KR2 d          -4.968   6.685  -1.408  0.00  0.00     0.089 H 
ATOM     38  FAB KR2 d          -6.131   6.644   0.893  0.00  0.00    -0.203 F 
ATOM     39  CAD KR2 d          -4.437   5.068   1.510  0.00  0.00     0.157 A 
ATOM     40  FAI KR2 d          -4.600   5.221   2.839  0.00  0.00    -0.203 F 
ATOM     41  CAE KR2 d          -3.459   4.187   1.070  0.00  0.00    -0.005 A 
ATOM     42  CAF KR2 d          -2.990   4.217  -0.239  0.00  0.00     0.125 A 
ATOM     43  H25 KR2 d          -3.051   3.459   1.762  0.00  0.00     0.093 H 
ATOM     44  FAJ KR2 d          -1.995   3.378  -0.572  0.00  0.00    -0.205 F 
ENDBRANCH  31  34
ENDBRANCH  25  31
ENDBRANCH  22  25
ENDBRANCH  10  22
BRANCH   1  45
ATOM     45  CAX KR2 d          -4.379   1.963  -6.180  0.00  0.00     0.001 A 
ATOM     46  CAY KR2 d          -5.475   1.106  -6.245  0.00  0.00    -0.072 A 
ATOM     47  CBC KR2 d          -5.974   0.521  -5.084  0.00  0.00    -0.082 A 
ATOM     48  H1  KR2 d          -5.940   0.894  -7.201  0.00  0.00     0.084 H 
ATOM     49  CBB KR2 d          -5.375   0.791  -3.855  0.00  0.00    -0.083 A 
ATOM     50  H2  KR2 d          -6.828  -0.144  -5.136  0.00  0.00     0.083 H 
ATOM     51  CBA KR2 d          -4.271   1.638  -3.792  0.00  0.00    -0.082 A 
ATOM     52  H3  KR2 d          -5.768   0.343  -2.950  0.00  0.00     0.083 H 
ATOM     53  CAZ KR2 d          -3.770   2.219  -4.954  0.00  0.00    -0.072 A 
ATOM     54  H4  KR2 d          -3.801   1.845  -2.837  0.00  0.00     0.083 H 
ATOM     55  H5  KR2 d          -2.905   2.871  -4.904  0.00  0.00     0.084 H 
ENDBRANCH   1  45
TORSDOF 6
