MODEL 1
REMARK VINA RESULT:      -7.2      0.000      0.000
REMARK  6 active torsions:
REMARK  status: ('A' for Active; 'I' for Inactive)
REMARK    1  A    between atoms: CAX_6  and  CAW_7 
REMARK       I    between atoms: CAW_7  and  NAR_9 
REMARK    2  A    between atoms: CAO_16  and  CAN_18 
REMARK    3  A    between atoms: CAN_18  and  CAL_19 
REMARK    4  A    between atoms: CAL_19  and  NAM_20 
REMARK    5  A    between atoms: CAL_19  and  CAK_21 
REMARK    6  A    between atoms: CAK_21  and  CAG_22 
ROOT
ATOM      1  CAW KR2 d          -1.965   4.007  -8.596  0.00  0.00     0.250 C 
ATOM      2  OAA KR2 d          -1.112   4.733  -7.703  0.00  0.00    -0.199 OA
ATOM      3  NAR KR2 d          -3.275   4.662  -8.750  0.00  0.00    -0.181 NA
ATOM      4  CAV KR2 d          -3.390   5.205 -10.114  0.00  0.00     0.001 C 
ATOM      5  CDD KR2 d          -3.931   6.634 -10.189  0.00  0.00    -0.052 C 
ATOM      6  CNN KR2 d          -2.925   7.685  -9.716  0.00  0.00    -0.062 C 
ATOM      7  CAT KR2 d          -2.941   7.895  -8.198  0.00  0.00    -0.049 C 
ATOM      8  CAS KR2 d          -2.528   6.647  -7.409  0.00  0.00     0.013 C 
ATOM      9  NAQ KR2 d          -3.440   5.532  -7.717  0.00  0.00    -0.288 N 
ATOM     10  CAO KR2 d          -4.643   5.473  -7.156  0.00  0.00     0.170 C 
ATOM     11  OAP KR2 d          -5.685   4.789  -7.693  0.00  0.00    -0.176 OA
ATOM     12  H6  KR2 d          -4.065   4.552 -10.687  0.00  0.00     0.058 H 
ATOM     13  H7  KR2 d          -2.391   5.192 -10.574  0.00  0.00     0.058 H 
ATOM     14  H8  KR2 d          -4.830   6.701  -9.558  0.00  0.00     0.034 H 
ATOM     15  H9  KR2 d          -4.199   6.852 -11.233  0.00  0.00     0.034 H 
ATOM     16  H10 KR2 d          -3.163   8.643 -10.204  0.00  0.00     0.033 H 
ATOM     17  H11 KR2 d          -1.916   7.363 -10.014  0.00  0.00     0.033 H 
ATOM     18  H12 KR2 d          -3.960   8.177  -7.896  0.00  0.00     0.035 H 
ATOM     19  H13 KR2 d          -2.246   8.710  -7.950  0.00  0.00     0.035 H 
ATOM     20  H14 KR2 d          -2.570   6.867  -6.332  0.00  0.00     0.066 H 
ATOM     21  H15 KR2 d          -1.501   6.365  -7.685  0.00  0.00     0.066 H 
ENDROOT
BRANCH  10  22
ATOM     22  CAN KR2 d          -4.913   6.281  -5.890  0.00  0.00     0.025 C 
ATOM     23  H16 KR2 d          -5.954   6.637  -5.902  0.00  0.00     0.048 H 
ATOM     24  H17 KR2 d          -4.231   7.144  -5.858  0.00  0.00     0.048 H 
BRANCH  22  25
ATOM     25  CAL KR2 d          -4.690   5.416  -4.650  0.00  0.00     0.111 C 
ATOM     26  H18 KR2 d          -4.254   4.453  -4.954  0.00  0.00     0.085 H 
BRANCH  25  27
ATOM     27  NAM KR2 d          -6.007   5.257  -4.019  0.00  0.00    -0.074 N 
ATOM     28  H19 KR2 d          -6.034   4.387  -3.512  0.00  0.00     0.274 HD
ATOM     29  H20 KR2 d          -6.722   5.255  -4.729  0.00  0.00     0.274 HD
ATOM     30  H21 KR2 d          -6.169   6.022  -3.382  0.00  0.00     0.274 HD
ENDBRANCH  25  27
BRANCH  25  31
ATOM     31  CAK KR2 d          -3.870   6.028  -3.516  0.00  0.00    -0.011 C 
ATOM     32  H22 KR2 d          -4.269   7.039  -3.351  0.00  0.00     0.043 H 
ATOM     33  H23 KR2 d          -2.834   6.097  -3.882  0.00  0.00     0.043 H 
BRANCH  31  34
ATOM     34  CAG KR2 d          -3.807   5.420  -2.266  0.00  0.00    -0.015 A 
ATOM     35  CAH KR2 d          -4.218   6.102  -1.131  0.00  0.00    -0.034 A 
ATOM     36  CAC KR2 d          -3.959   5.620   0.150  0.00  0.00     0.155 A 
ATOM     37  H24 KR2 d          -4.755   7.037  -1.243  0.00  0.00     0.089 H 
ATOM     38  FAB KR2 d          -4.526   6.244   1.200  0.00  0.00    -0.203 F 
ATOM     39  CAD KR2 d          -3.246   4.434   0.293  0.00  0.00     0.157 A 
ATOM     40  FAI KR2 d          -2.653   4.103   1.457  0.00  0.00    -0.203 F 
ATOM     41  CAE KR2 d          -2.911   3.706  -0.840  0.00  0.00    -0.005 A 
ATOM     42  CAF KR2 d          -3.196   4.177  -2.117  0.00  0.00     0.125 A 
ATOM     43  H25 KR2 d          -2.415   2.748  -0.728  0.00  0.00     0.093 H 
ATOM     44  FAJ KR2 d          -2.781   3.448  -3.166  0.00  0.00    -0.205 F 
ENDBRANCH  31  34
ENDBRANCH  25  31
ENDBRANCH  22  25
ENDBRANCH  10  22
BRANCH   1  45
ATOM     45  CAX KR2 d          -2.318   2.663  -7.947  0.00  0.00     0.001 A 
ATOM     46  CAY KR2 d          -2.788   1.615  -8.736  0.00  0.00    -0.072 A 
ATOM     47  CBC KR2 d          -3.350   0.490  -8.138  0.00  0.00    -0.082 A 
ATOM     48  H1  KR2 d          -2.715   1.675  -9.815  0.00  0.00     0.084 H 
ATOM     49  CBB KR2 d          -3.441   0.410  -6.750  0.00  0.00    -0.083 A 
ATOM     50  H2  KR2 d          -3.716  -0.324  -8.753  0.00  0.00     0.083 H 
ATOM     51  CBA KR2 d          -2.960   1.453  -5.962  0.00  0.00    -0.082 A 
ATOM     52  H3  KR2 d          -3.886  -0.462  -6.285  0.00  0.00     0.083 H 
ATOM     53  CAZ KR2 d          -2.394   2.576  -6.560  0.00  0.00    -0.072 A 
ATOM     54  H4  KR2 d          -3.026   1.390  -4.881  0.00  0.00     0.083 H 
ATOM     55  H5  KR2 d          -2.012   3.383  -5.944  0.00  0.00     0.084 H 
ENDBRANCH   1  45
TORSDOF 6
ENDMDL
MODEL 2
REMARK VINA RESULT:      -6.9      3.424      6.844
REMARK  6 active torsions:
REMARK  status: ('A' for Active; 'I' for Inactive)
REMARK    1  A    between atoms: CAX_6  and  CAW_7 
REMARK       I    between atoms: CAW_7  and  NAR_9 
REMARK    2  A    between atoms: CAO_16  and  CAN_18 
REMARK    3  A    between atoms: CAN_18  and  CAL_19 
REMARK    4  A    between atoms: CAL_19  and  NAM_20 
REMARK    5  A    between atoms: CAL_19  and  CAK_21 
REMARK    6  A    between atoms: CAK_21  and  CAG_22 
ROOT
ATOM      1  CAW KR2 d          -2.257   5.686  -4.967  0.00  0.00     0.250 C 
ATOM      2  OAA KR2 d          -1.908   4.344  -5.330  0.00  0.00    -0.199 OA
ATOM      3  NAR KR2 d          -3.500   5.730  -4.179  0.00  0.00    -0.181 NA
ATOM      4  CAV KR2 d          -3.185   6.125  -2.796  0.00  0.00     0.001 C 
ATOM      5  CDD KR2 d          -3.867   5.278  -1.719  0.00  0.00    -0.052 C 
ATOM      6  CNN KR2 d          -3.271   3.873  -1.591  0.00  0.00    -0.062 C 
ATOM      7  CAT KR2 d          -3.874   2.871  -2.582  0.00  0.00    -0.049 C 
ATOM      8  CAS KR2 d          -3.599   3.226  -4.047  0.00  0.00     0.013 C 
ATOM      9  NAQ KR2 d          -4.159   4.553  -4.357  0.00  0.00    -0.288 N 
ATOM     10  CAO KR2 d          -5.461   4.698  -4.579  0.00  0.00     0.170 C 
ATOM     11  OAP KR2 d          -6.120   5.874  -4.417  0.00  0.00    -0.176 OA
ATOM     12  H6  KR2 d          -3.499   7.171  -2.658  0.00  0.00     0.058 H 
ATOM     13  H7  KR2 d          -2.098   6.048  -2.656  0.00  0.00     0.058 H 
ATOM     14  H8  KR2 d          -4.934   5.183  -1.971  0.00  0.00     0.034 H 
ATOM     15  H9  KR2 d          -3.762   5.791  -0.753  0.00  0.00     0.034 H 
ATOM     16  H10 KR2 d          -3.453   3.508  -0.569  0.00  0.00     0.033 H 
ATOM     17  H11 KR2 d          -2.187   3.935  -1.772  0.00  0.00     0.033 H 
ATOM     18  H12 KR2 d          -4.963   2.841  -2.428  0.00  0.00     0.035 H 
ATOM     19  H13 KR2 d          -3.447   1.878  -2.377  0.00  0.00     0.035 H 
ATOM     20  H14 KR2 d          -4.066   2.472  -4.698  0.00  0.00     0.066 H 
ATOM     21  H15 KR2 d          -2.513   3.239  -4.221  0.00  0.00     0.066 H 
ENDROOT
BRANCH  10  22
ATOM     22  CAN KR2 d          -6.293   3.474  -4.949  0.00  0.00     0.025 C 
ATOM     23  H16 KR2 d          -7.205   3.456  -4.334  0.00  0.00     0.048 H 
ATOM     24  H17 KR2 d          -5.704   2.564  -4.759  0.00  0.00     0.048 H 
BRANCH  22  25
ATOM     25  CAL KR2 d          -6.682   3.523  -6.426  0.00  0.00     0.111 C 
ATOM     26  H18 KR2 d          -7.744   3.797  -6.512  0.00  0.00     0.085 H 
BRANCH  25  27
ATOM     27  NAM KR2 d          -6.405   2.186  -6.968  0.00  0.00    -0.074 N 
ATOM     28  H19 KR2 d          -5.675   1.750  -6.428  0.00  0.00     0.274 HD
ATOM     29  H20 KR2 d          -6.111   2.267  -7.929  0.00  0.00     0.274 HD
ATOM     30  H21 KR2 d          -7.241   1.624  -6.920  0.00  0.00     0.274 HD
ENDBRANCH  25  27
BRANCH  25  31
ATOM     31  CAK KR2 d          -5.837   4.413  -7.336  0.00  0.00    -0.011 C 
ATOM     32  H22 KR2 d          -5.271   5.088  -6.677  0.00  0.00     0.043 H 
ATOM     33  H23 KR2 d          -6.543   5.000  -7.943  0.00  0.00     0.043 H 
BRANCH  31  34
ATOM     34  CAG KR2 d          -4.915   3.864  -8.222  0.00  0.00    -0.015 A 
ATOM     35  CAH KR2 d          -3.918   3.017  -7.764  0.00  0.00    -0.034 A 
ATOM     36  CAC KR2 d          -2.850   2.634  -8.572  0.00  0.00     0.155 A 
ATOM     37  H24 KR2 d          -3.970   2.642  -6.749  0.00  0.00     0.089 H 
ATOM     38  FAB KR2 d          -2.009   1.685  -8.122  0.00  0.00    -0.203 F 
ATOM     39  CAD KR2 d          -2.770   3.138  -9.867  0.00  0.00     0.157 A 
ATOM     40  FAI KR2 d          -1.617   3.115 -10.564  0.00  0.00    -0.203 F 
ATOM     41  CAE KR2 d          -3.811   3.915 -10.356  0.00  0.00    -0.005 A 
ATOM     42  CAF KR2 d          -4.890   4.271  -9.554  0.00  0.00     0.125 A 
ATOM     43  H25 KR2 d          -3.783   4.252 -11.386  0.00  0.00     0.093 H 
ATOM     44  FAJ KR2 d          -5.826   5.080 -10.078  0.00  0.00    -0.205 F 
ENDBRANCH  31  34
ENDBRANCH  25  31
ENDBRANCH  22  25
ENDBRANCH  10  22
BRANCH   1  45
ATOM     45  CAX KR2 d          -2.620   6.456  -6.241  0.00  0.00     0.001 A 
ATOM     46  CAY KR2 d          -2.117   6.038  -7.471  0.00  0.00    -0.072 A 
ATOM     47  CBC KR2 d          -2.225   6.865  -8.587  0.00  0.00    -0.082 A 
ATOM     48  H1  KR2 d          -1.642   5.068  -7.560  0.00  0.00     0.084 H 
ATOM     49  CBB KR2 d          -2.838   8.111  -8.474  0.00  0.00    -0.083 A 
ATOM     50  H2  KR2 d          -1.831   6.539  -9.543  0.00  0.00     0.083 H 
ATOM     51  CBA KR2 d          -3.352   8.523  -7.247  0.00  0.00    -0.082 A 
ATOM     52  H3  KR2 d          -2.915   8.758  -9.340  0.00  0.00     0.083 H 
ATOM     53  CAZ KR2 d          -3.248   7.694  -6.133  0.00  0.00    -0.072 A 
ATOM     54  H4  KR2 d          -3.834   9.490  -7.159  0.00  0.00     0.083 H 
ATOM     55  H5  KR2 d          -3.657   8.013  -5.180  0.00  0.00     0.084 H 
ENDBRANCH   1  45
TORSDOF 6
ENDMDL
MODEL 3
REMARK VINA RESULT:      -6.9      3.634      7.504
REMARK  6 active torsions:
REMARK  status: ('A' for Active; 'I' for Inactive)
REMARK    1  A    between atoms: CAX_6  and  CAW_7 
REMARK       I    between atoms: CAW_7  and  NAR_9 
REMARK    2  A    between atoms: CAO_16  and  CAN_18 
REMARK    3  A    between atoms: CAN_18  and  CAL_19 
REMARK    4  A    between atoms: CAL_19  and  NAM_20 
REMARK    5  A    between atoms: CAL_19  and  CAK_21 
REMARK    6  A    between atoms: CAK_21  and  CAG_22 
ROOT
ATOM      1  CAW KR2 d          -3.746   3.524  -1.568  0.00  0.00     0.250 C 
ATOM      2  OAA KR2 d          -2.331   3.669  -1.740  0.00  0.00    -0.199 OA
ATOM      3  NAR KR2 d          -4.481   3.860  -2.800  0.00  0.00    -0.181 NA
ATOM      4  CAV KR2 d          -5.075   2.635  -3.361  0.00  0.00     0.001 C 
ATOM      5  CDD KR2 d          -4.881   2.465  -4.869  0.00  0.00    -0.052 C 
ATOM      6  CNN KR2 d          -3.446   2.100  -5.255  0.00  0.00    -0.062 C 
ATOM      7  CAT KR2 d          -2.534   3.322  -5.405  0.00  0.00    -0.049 C 
ATOM      8  CAS KR2 d          -2.348   4.105  -4.099  0.00  0.00     0.013 C 
ATOM      9  NAQ KR2 d          -3.653   4.578  -3.606  0.00  0.00    -0.288 N 
ATOM     10  CAO KR2 d          -4.230   5.644  -4.149  0.00  0.00     0.170 C 
ATOM     11  OAP KR2 d          -5.566   5.878  -4.100  0.00  0.00    -0.176 OA
ATOM     12  H6  KR2 d          -6.156   2.652  -3.154  0.00  0.00     0.058 H 
ATOM     13  H7  KR2 d          -4.620   1.771  -2.857  0.00  0.00     0.058 H 
ATOM     14  H8  KR2 d          -5.148   3.410  -5.365  0.00  0.00     0.034 H 
ATOM     15  H9  KR2 d          -5.551   1.666  -5.219  0.00  0.00     0.034 H 
ATOM     16  H10 KR2 d          -3.468   1.560  -6.213  0.00  0.00     0.033 H 
ATOM     17  H11 KR2 d          -3.029   1.446  -4.474  0.00  0.00     0.033 H 
ATOM     18  H12 KR2 d          -2.973   3.996  -6.155  0.00  0.00     0.035 H 
ATOM     19  H13 KR2 d          -1.547   2.982  -5.750  0.00  0.00     0.035 H 
ATOM     20  H14 KR2 d          -1.692   4.968  -4.282  0.00  0.00     0.066 H 
ATOM     21  H15 KR2 d          -1.889   3.449  -3.344  0.00  0.00     0.066 H 
ENDROOT
BRANCH  10  22
ATOM     22  CAN KR2 d          -3.377   6.624  -4.950  0.00  0.00     0.025 C 
ATOM     23  H16 KR2 d          -2.400   6.741  -4.458  0.00  0.00     0.048 H 
ATOM     24  H17 KR2 d          -3.886   7.599  -4.991  0.00  0.00     0.048 H 
BRANCH  22  25
ATOM     25  CAL KR2 d          -3.166   6.105  -6.372  0.00  0.00     0.111 C 
ATOM     26  H18 KR2 d          -3.142   5.005  -6.356  0.00  0.00     0.085 H 
BRANCH  25  27
ATOM     27  NAM KR2 d          -1.898   6.684  -6.836  0.00  0.00    -0.074 N 
ATOM     28  H19 KR2 d          -1.969   7.689  -6.839  0.00  0.00     0.274 HD
ATOM     29  H20 KR2 d          -1.701   6.358  -7.769  0.00  0.00     0.274 HD
ATOM     30  H21 KR2 d          -1.153   6.402  -6.217  0.00  0.00     0.274 HD
ENDBRANCH  25  27
BRANCH  25  31
ATOM     31  CAK KR2 d          -4.143   6.593  -7.440  0.00  0.00    -0.011 C 
ATOM     32  H22 KR2 d          -3.571   7.251  -8.111  0.00  0.00     0.043 H 
ATOM     33  H23 KR2 d          -4.911   7.182  -6.916  0.00  0.00     0.043 H 
BRANCH  31  34
ATOM     34  CAG KR2 d          -4.824   5.694  -8.256  0.00  0.00    -0.015 A 
ATOM     35  CAH KR2 d          -5.427   4.570  -7.713  0.00  0.00    -0.034 A 
ATOM     36  CAC KR2 d          -5.914   3.539  -8.512  0.00  0.00     0.155 A 
ATOM     37  H24 KR2 d          -5.522   4.491  -6.636  0.00  0.00     0.089 H 
ATOM     38  FAB KR2 d          -6.631   2.558  -7.933  0.00  0.00    -0.203 F 
ATOM     39  CAD KR2 d          -5.767   3.629  -9.893  0.00  0.00     0.157 A 
ATOM     40  FAI KR2 d          -5.871   2.545 -10.686  0.00  0.00    -0.203 F 
ATOM     41  CAE KR2 d          -5.243   4.791 -10.442  0.00  0.00    -0.005 A 
ATOM     42  CAF KR2 d          -4.784   5.831  -9.641  0.00  0.00     0.125 A 
ATOM     43  H25 KR2 d          -5.190   4.891 -11.521  0.00  0.00     0.093 H 
ATOM     44  FAJ KR2 d          -4.229   6.895 -10.245  0.00  0.00    -0.205 F 
ENDBRANCH  31  34
ENDBRANCH  25  31
ENDBRANCH  22  25
ENDBRANCH  10  22
BRANCH   1  45
ATOM     45  CAX KR2 d          -4.227   4.585  -0.571  0.00  0.00     0.001 A 
ATOM     46  CAY KR2 d          -3.516   4.802   0.607  0.00  0.00    -0.072 A 
ATOM     47  CBC KR2 d          -4.073   5.567   1.628  0.00  0.00    -0.082 A 
ATOM     48  H1  KR2 d          -2.527   4.374   0.728  0.00  0.00     0.084 H 
ATOM     49  CBB KR2 d          -5.343   6.119   1.471  0.00  0.00    -0.083 A 
ATOM     50  H2  KR2 d          -3.520   5.733   2.545  0.00  0.00     0.083 H 
ATOM     51  CBA KR2 d          -6.049   5.912   0.288  0.00  0.00    -0.082 A 
ATOM     52  H3  KR2 d          -5.781   6.707   2.269  0.00  0.00     0.083 H 
ATOM     53  CAZ KR2 d          -5.489   5.151  -0.735  0.00  0.00    -0.072 A 
ATOM     54  H4  KR2 d          -7.035   6.345   0.162  0.00  0.00     0.083 H 
ATOM     55  H5  KR2 d          -6.036   4.998  -1.658  0.00  0.00     0.084 H 
ENDBRANCH   1  45
TORSDOF 6
ENDMDL
MODEL 4
REMARK VINA RESULT:      -6.8      1.445      2.265
REMARK  6 active torsions:
REMARK  status: ('A' for Active; 'I' for Inactive)
REMARK    1  A    between atoms: CAX_6  and  CAW_7 
REMARK       I    between atoms: CAW_7  and  NAR_9 
REMARK    2  A    between atoms: CAO_16  and  CAN_18 
REMARK    3  A    between atoms: CAN_18  and  CAL_19 
REMARK    4  A    between atoms: CAL_19  and  NAM_20 
REMARK    5  A    between atoms: CAL_19  and  CAK_21 
REMARK    6  A    between atoms: CAK_21  and  CAG_22 
ROOT
ATOM      1  CAW KR2 d          -2.132   3.862  -9.074  0.00  0.00     0.250 C 
ATOM      2  OAA KR2 d          -1.134   4.408  -8.202  0.00  0.00    -0.199 OA
ATOM      3  NAR KR2 d          -3.372   4.656  -9.044  0.00  0.00    -0.181 NA
ATOM      4  CAV KR2 d          -3.542   5.341 -10.336  0.00  0.00     0.001 C 
ATOM      5  CDD KR2 d          -3.932   6.817 -10.229  0.00  0.00    -0.052 C 
ATOM      6  CNN KR2 d          -2.783   7.711  -9.758  0.00  0.00    -0.062 C 
ATOM      7  CAT KR2 d          -2.650   7.768  -8.232  0.00  0.00    -0.049 C 
ATOM      8  CAS KR2 d          -2.308   6.412  -7.603  0.00  0.00     0.013 C 
ATOM      9  NAQ KR2 d          -3.356   5.429  -7.925  0.00  0.00    -0.288 N 
ATOM     10  CAO KR2 d          -4.507   5.433  -7.262  0.00  0.00     0.170 C 
ATOM     11  OAP KR2 d          -5.658   4.912  -7.759  0.00  0.00    -0.176 OA
ATOM     12  H6  KR2 d          -4.328   4.819 -10.901  0.00  0.00     0.058 H 
ATOM     13  H7  KR2 d          -2.592   5.276 -10.886  0.00  0.00     0.058 H 
ATOM     14  H8  KR2 d          -4.762   6.908  -9.513  0.00  0.00     0.034 H 
ATOM     15  H9  KR2 d          -4.261   7.164 -11.219  0.00  0.00     0.034 H 
ATOM     16  H10 KR2 d          -2.957   8.732 -10.132  0.00  0.00     0.033 H 
ATOM     17  H11 KR2 d          -1.842   7.323 -10.177  0.00  0.00     0.033 H 
ATOM     18  H12 KR2 d          -3.604   8.117  -7.812  0.00  0.00     0.035 H 
ATOM     19  H13 KR2 d          -1.853   8.482  -7.977  0.00  0.00     0.035 H 
ATOM     20  H14 KR2 d          -2.236   6.525  -6.511  0.00  0.00     0.066 H 
ATOM     21  H15 KR2 d          -1.343   6.060  -7.999  0.00  0.00     0.066 H 
ENDROOT
BRANCH  10  22
ATOM     22  CAN KR2 d          -4.583   6.132  -5.907  0.00  0.00     0.025 C 
ATOM     23  H16 KR2 d          -5.234   7.014  -5.991  0.00  0.00     0.048 H 
ATOM     24  H17 KR2 d          -3.573   6.448  -5.605  0.00  0.00     0.048 H 
BRANCH  22  25
ATOM     25  CAL KR2 d          -5.152   5.184  -4.852  0.00  0.00     0.111 C 
ATOM     26  H18 KR2 d          -5.191   4.165  -5.264  0.00  0.00     0.085 H 
BRANCH  25  27
ATOM     27  NAM KR2 d          -6.484   5.701  -4.512  0.00  0.00    -0.074 N 
ATOM     28  H19 KR2 d          -6.924   5.084  -3.848  0.00  0.00     0.274 HD
ATOM     29  H20 KR2 d          -7.047   5.753  -5.346  0.00  0.00     0.274 HD
ATOM     30  H21 KR2 d          -6.395   6.621  -4.109  0.00  0.00     0.274 HD
ENDBRANCH  25  27
BRANCH  25  31
ATOM     31  CAK KR2 d          -4.462   5.171  -3.488  0.00  0.00    -0.011 C 
ATOM     32  H22 KR2 d          -5.179   5.598  -2.771  0.00  0.00     0.043 H 
ATOM     33  H23 KR2 d          -3.589   5.836  -3.573  0.00  0.00     0.043 H 
BRANCH  31  34
ATOM     34  CAG KR2 d          -4.002   3.984  -2.927  0.00  0.00    -0.015 A 
ATOM     35  CAH KR2 d          -4.174   2.780  -3.591  0.00  0.00    -0.034 A 
ATOM     36  CAC KR2 d          -3.937   1.556  -2.968  0.00  0.00     0.155 A 
ATOM     37  H24 KR2 d          -4.502   2.790  -4.624  0.00  0.00     0.089 H 
ATOM     38  FAB KR2 d          -3.965   0.437  -3.715  0.00  0.00    -0.203 F 
ATOM     39  CAD KR2 d          -3.542   1.545  -1.634  0.00  0.00     0.157 A 
ATOM     40  FAI KR2 d          -3.649   0.436  -0.876  0.00  0.00    -0.203 F 
ATOM     41  CAE KR2 d          -3.286   2.750  -0.994  0.00  0.00    -0.005 A 
ATOM     42  CAF KR2 d          -3.496   3.969  -1.630  0.00  0.00     0.125 A 
ATOM     43  H25 KR2 d          -2.913   2.741   0.024  0.00  0.00     0.093 H 
ATOM     44  FAJ KR2 d          -3.289   5.092  -0.923  0.00  0.00    -0.205 F 
ENDBRANCH  31  34
ENDBRANCH  25  31
ENDBRANCH  22  25
ENDBRANCH  10  22
BRANCH   1  45
ATOM     45  CAX KR2 d          -2.571   2.502  -8.521  0.00  0.00     0.001 A 
ATOM     46  CAY KR2 d          -3.721   1.891  -9.015  0.00  0.00    -0.072 A 
ATOM     47  CBC KR2 d          -4.269   0.795  -8.353  0.00  0.00    -0.082 A 
ATOM     48  H1  KR2 d          -4.190   2.270  -9.916  0.00  0.00     0.084 H 
ATOM     49  CBB KR2 d          -3.665   0.307  -7.196  0.00  0.00    -0.083 A 
ATOM     50  H2  KR2 d          -5.165   0.323  -8.737  0.00  0.00     0.083 H 
ATOM     51  CBA KR2 d          -2.507   0.909  -6.710  0.00  0.00    -0.082 A 
ATOM     52  H3  KR2 d          -4.096  -0.541  -6.676  0.00  0.00     0.083 H 
ATOM     53  CAZ KR2 d          -1.958   2.002  -7.374  0.00  0.00    -0.072 A 
ATOM     54  H4  KR2 d          -2.034   0.527  -5.812  0.00  0.00     0.083 H 
ATOM     55  H5  KR2 d          -1.051   2.465  -6.999  0.00  0.00     0.084 H 
ENDBRANCH   1  45
TORSDOF 6
ENDMDL
MODEL 5
REMARK VINA RESULT:      -6.5      3.375      7.556
REMARK  6 active torsions:
REMARK  status: ('A' for Active; 'I' for Inactive)
REMARK    1  A    between atoms: CAX_6  and  CAW_7 
REMARK       I    between atoms: CAW_7  and  NAR_9 
REMARK    2  A    between atoms: CAO_16  and  CAN_18 
REMARK    3  A    between atoms: CAN_18  and  CAL_19 
REMARK    4  A    between atoms: CAL_19  and  NAM_20 
REMARK    5  A    between atoms: CAL_19  and  CAK_21 
REMARK    6  A    between atoms: CAK_21  and  CAG_22 
ROOT
ATOM      1  CAW KR2 d          -3.766   3.490  -1.412  0.00  0.00     0.250 C 
ATOM      2  OAA KR2 d          -2.368   3.670  -1.665  0.00  0.00    -0.199 OA
ATOM      3  NAR KR2 d          -4.577   3.773  -2.608  0.00  0.00    -0.181 NA
ATOM      4  CAV KR2 d          -5.165   2.518  -3.105  0.00  0.00     0.001 C 
ATOM      5  CDD KR2 d          -5.049   2.314  -4.617  0.00  0.00    -0.052 C 
ATOM      6  CNN KR2 d          -3.626   1.981  -5.074  0.00  0.00    -0.062 C 
ATOM      7  CAT KR2 d          -2.760   3.224  -5.303  0.00  0.00    -0.049 C 
ATOM      8  CAS KR2 d          -2.527   4.045  -4.030  0.00  0.00     0.013 C 
ATOM      9  NAQ KR2 d          -3.816   4.493  -3.477  0.00  0.00    -0.288 N 
ATOM     10  CAO KR2 d          -4.454   5.529  -4.012  0.00  0.00     0.170 C 
ATOM     11  OAP KR2 d          -5.792   5.725  -3.894  0.00  0.00    -0.176 OA
ATOM     12  H6  KR2 d          -6.232   2.510  -2.839  0.00  0.00     0.058 H 
ATOM     13  H7  KR2 d          -4.656   1.680  -2.607  0.00  0.00     0.058 H 
ATOM     14  H8  KR2 d          -5.370   3.239  -5.120  0.00  0.00     0.034 H 
ATOM     15  H9  KR2 d          -5.712   1.488  -4.910  0.00  0.00     0.034 H 
ATOM     16  H10 KR2 d          -3.684   1.416  -6.016  0.00  0.00     0.033 H 
ATOM     17  H11 KR2 d          -3.148   1.359  -4.302  0.00  0.00     0.033 H 
ATOM     18  H12 KR2 d          -3.260   3.865  -6.045  0.00  0.00     0.035 H 
ATOM     19  H13 KR2 d          -1.784   2.903  -5.695  0.00  0.00     0.035 H 
ATOM     20  H14 KR2 d          -1.908   4.922  -4.269  0.00  0.00     0.066 H 
ATOM     21  H15 KR2 d          -2.008   3.422  -3.286  0.00  0.00     0.066 H 
ENDROOT
BRANCH  10  22
ATOM     22  CAN KR2 d          -3.675   6.511  -4.882  0.00  0.00     0.025 C 
ATOM     23  H16 KR2 d          -2.663   6.119  -5.056  0.00  0.00     0.048 H 
ATOM     24  H17 KR2 d          -3.609   7.481  -4.365  0.00  0.00     0.048 H 
BRANCH  22  25
ATOM     25  CAL KR2 d          -4.379   6.703  -6.225  0.00  0.00     0.111 C 
ATOM     26  H18 KR2 d          -5.039   7.582  -6.166  0.00  0.00     0.085 H 
BRANCH  25  27
ATOM     27  NAM KR2 d          -5.123   5.462  -6.480  0.00  0.00    -0.074 N 
ATOM     28  H19 KR2 d          -6.081   5.684  -6.700  0.00  0.00     0.274 HD
ATOM     29  H20 KR2 d          -5.094   4.879  -5.659  0.00  0.00     0.274 HD
ATOM     30  H21 KR2 d          -4.704   4.973  -7.255  0.00  0.00     0.274 HD
ENDBRANCH  25  27
BRANCH  25  31
ATOM     31  CAK KR2 d          -3.491   6.797  -7.466  0.00  0.00    -0.011 C 
ATOM     32  H22 KR2 d          -2.451   6.787  -7.108  0.00  0.00     0.043 H 
ATOM     33  H23 KR2 d          -3.709   7.770  -7.932  0.00  0.00     0.043 H 
BRANCH  31  34
ATOM     34  CAG KR2 d          -3.569   5.847  -8.479  0.00  0.00    -0.015 A 
ATOM     35  CAH KR2 d          -4.710   5.745  -9.260  0.00  0.00    -0.034 A 
ATOM     36  CAC KR2 d          -4.917   4.670 -10.122  0.00  0.00     0.155 A 
ATOM     37  H24 KR2 d          -5.462   6.523  -9.200  0.00  0.00     0.089 H 
ATOM     38  FAB KR2 d          -5.961   4.714 -10.969  0.00  0.00    -0.203 F 
ATOM     39  CAD KR2 d          -3.963   3.658 -10.178  0.00  0.00     0.157 A 
ATOM     40  FAI KR2 d          -4.251   2.444 -10.688  0.00  0.00    -0.203 F 
ATOM     41  CAE KR2 d          -2.782   3.801  -9.463  0.00  0.00    -0.005 A 
ATOM     42  CAF KR2 d          -2.567   4.891  -8.626  0.00  0.00     0.125 A 
ATOM     43  H25 KR2 d          -2.009   3.047  -9.558  0.00  0.00     0.093 H 
ATOM     44  FAJ KR2 d          -1.428   4.926  -7.915  0.00  0.00    -0.205 F 
ENDBRANCH  31  34
ENDBRANCH  25  31
ENDBRANCH  22  25
ENDBRANCH  10  22
BRANCH   1  45
ATOM     45  CAX KR2 d          -4.222   4.562  -0.415  0.00  0.00     0.001 A 
ATOM     46  CAY KR2 d          -3.503   4.769   0.759  0.00  0.00    -0.072 A 
ATOM     47  CBC KR2 d          -4.041   5.546   1.781  0.00  0.00    -0.082 A 
ATOM     48  H1  KR2 d          -2.521   4.324   0.878  0.00  0.00     0.084 H 
ATOM     49  CBB KR2 d          -5.302   6.121   1.628  0.00  0.00    -0.083 A 
ATOM     50  H2  KR2 d          -3.481   5.705   2.694  0.00  0.00     0.083 H 
ATOM     51  CBA KR2 d          -6.016   5.925   0.448  0.00  0.00    -0.082 A 
ATOM     52  H3  KR2 d          -5.725   6.720   2.426  0.00  0.00     0.083 H 
ATOM     53  CAZ KR2 d          -5.475   5.150  -0.574  0.00  0.00    -0.072 A 
ATOM     54  H4  KR2 d          -6.995   6.375   0.326  0.00  0.00     0.083 H 
ATOM     55  H5  KR2 d          -6.028   5.006  -1.495  0.00  0.00     0.084 H 
ENDBRANCH   1  45
TORSDOF 6
ENDMDL
MODEL 6
REMARK VINA RESULT:      -6.0      1.704      2.324
REMARK  6 active torsions:
REMARK  status: ('A' for Active; 'I' for Inactive)
REMARK    1  A    between atoms: CAX_6  and  CAW_7 
REMARK       I    between atoms: CAW_7  and  NAR_9 
REMARK    2  A    between atoms: CAO_16  and  CAN_18 
REMARK    3  A    between atoms: CAN_18  and  CAL_19 
REMARK    4  A    between atoms: CAL_19  and  NAM_20 
REMARK    5  A    between atoms: CAL_19  and  CAK_21 
REMARK    6  A    between atoms: CAK_21  and  CAG_22 
ROOT
ATOM      1  CAW KR2 d          -3.213   3.938  -9.744  0.00  0.00     0.250 C 
ATOM      2  OAA KR2 d          -1.807   3.754  -9.547  0.00  0.00    -0.199 OA
ATOM      3  NAR KR2 d          -3.792   4.836  -8.730  0.00  0.00    -0.181 NA
ATOM      4  CAV KR2 d          -4.191   6.100  -9.370  0.00  0.00     0.001 C 
ATOM      5  CDD KR2 d          -3.771   7.360  -8.611  0.00  0.00    -0.052 C 
ATOM      6  CNN KR2 d          -2.268   7.642  -8.694  0.00  0.00    -0.062 C 
ATOM      7  CAT KR2 d          -1.454   6.887  -7.637  0.00  0.00    -0.049 C 
ATOM      8  CAS KR2 d          -1.526   5.364  -7.790  0.00  0.00     0.013 C 
ATOM      9  NAQ KR2 d          -2.924   4.912  -7.684  0.00  0.00    -0.288 N 
ATOM     10  CAO KR2 d          -3.508   4.808  -6.496  0.00  0.00     0.170 C 
ATOM     11  OAP KR2 d          -4.854   4.854  -6.318  0.00  0.00    -0.176 OA
ATOM     12  H6  KR2 d          -5.287   6.106  -9.463  0.00  0.00     0.058 H 
ATOM     13  H7  KR2 d          -3.738   6.136 -10.371  0.00  0.00     0.058 H 
ATOM     14  H8  KR2 d          -4.045   7.239  -7.552  0.00  0.00     0.034 H 
ATOM     15  H9  KR2 d          -4.311   8.219  -9.033  0.00  0.00     0.034 H 
ATOM     16  H10 KR2 d          -2.106   8.721  -8.556  0.00  0.00     0.033 H 
ATOM     17  H11 KR2 d          -1.911   7.341  -9.691  0.00  0.00     0.033 H 
ATOM     18  H12 KR2 d          -1.840   7.157  -6.643  0.00  0.00     0.035 H 
ATOM     19  H13 KR2 d          -0.402   7.197  -7.720  0.00  0.00     0.035 H 
ATOM     20  H14 KR2 d          -0.928   4.890  -6.997  0.00  0.00     0.066 H 
ATOM     21  H15 KR2 d          -1.123   5.077  -8.773  0.00  0.00     0.066 H 
ENDROOT
BRANCH  10  22
ATOM     22  CAN KR2 d          -2.639   4.721  -5.245  0.00  0.00     0.025 C 
ATOM     23  H16 KR2 d          -2.837   5.594  -4.605  0.00  0.00     0.048 H 
ATOM     24  H17 KR2 d          -1.579   4.715  -5.540  0.00  0.00     0.048 H 
BRANCH  22  25
ATOM     25  CAL KR2 d          -2.954   3.444  -4.467  0.00  0.00     0.111 C 
ATOM     26  H18 KR2 d          -2.036   3.079  -3.983  0.00  0.00     0.085 H 
BRANCH  25  27
ATOM     27  NAM KR2 d          -3.485   2.487  -5.448  0.00  0.00    -0.074 N 
ATOM     28  H19 KR2 d          -4.480   2.618  -5.540  0.00  0.00     0.274 HD
ATOM     29  H20 KR2 d          -3.297   1.547  -5.136  0.00  0.00     0.274 HD
ATOM     30  H21 KR2 d          -3.041   2.640  -6.340  0.00  0.00     0.274 HD
ENDBRANCH  25  27
BRANCH  25  31
ATOM     31  CAK KR2 d          -4.092   3.514  -3.450  0.00  0.00    -0.011 C 
ATOM     32  H22 KR2 d          -4.305   2.479  -3.147  0.00  0.00     0.043 H 
ATOM     33  H23 KR2 d          -4.962   3.928  -3.982  0.00  0.00     0.043 H 
BRANCH  31  34
ATOM     34  CAG KR2 d          -3.961   4.250  -2.276  0.00  0.00    -0.015 A 
ATOM     35  CAH KR2 d          -3.120   3.814  -1.264  0.00  0.00    -0.034 A 
ATOM     36  CAC KR2 d          -3.134   4.392   0.004  0.00  0.00     0.155 A 
ATOM     37  H24 KR2 d          -2.431   3.002  -1.464  0.00  0.00     0.089 H 
ATOM     38  FAB KR2 d          -2.184   4.034   0.886  0.00  0.00    -0.203 F 
ATOM     39  CAD KR2 d          -4.038   5.417   0.267  0.00  0.00     0.157 A 
ATOM     40  FAI KR2 d          -4.363   5.764   1.528  0.00  0.00    -0.203 F 
ATOM     41  CAE KR2 d          -4.819   5.912  -0.768  0.00  0.00    -0.005 A 
ATOM     42  CAF KR2 d          -4.780   5.351  -2.040  0.00  0.00     0.125 A 
ATOM     43  H25 KR2 d          -5.474   6.755  -0.582  0.00  0.00     0.093 H 
ATOM     44  FAJ KR2 d          -5.614   5.842  -2.972  0.00  0.00    -0.205 F 
ENDBRANCH  31  34
ENDBRANCH  25  31
ENDBRANCH  22  25
ENDBRANCH  10  22
BRANCH   1  45
ATOM     45  CAX KR2 d          -3.922   2.605  -9.480  0.00  0.00     0.001 A 
ATOM     46  CAY KR2 d          -5.305   2.574  -9.325  0.00  0.00    -0.072 A 
ATOM     47  CBC KR2 d          -5.928   1.428  -8.835  0.00  0.00    -0.082 A 
ATOM     48  H1  KR2 d          -5.899   3.442  -9.587  0.00  0.00     0.084 H 
ATOM     49  CBB KR2 d          -5.166   0.311  -8.500  0.00  0.00    -0.083 A 
ATOM     50  H2  KR2 d          -7.004   1.406  -8.713  0.00  0.00     0.083 H 
ATOM     51  CBA KR2 d          -3.783   0.338  -8.667  0.00  0.00    -0.082 A 
ATOM     52  H3  KR2 d          -5.648  -0.578  -8.111  0.00  0.00     0.083 H 
ATOM     53  CAZ KR2 d          -3.162   1.482  -9.162  0.00  0.00    -0.072 A 
ATOM     54  H4  KR2 d          -3.190  -0.533  -8.412  0.00  0.00     0.083 H 
ATOM     55  H5  KR2 d          -2.087   1.498  -9.299  0.00  0.00     0.084 H 
ENDBRANCH   1  45
TORSDOF 6
ENDMDL
MODEL 7
REMARK VINA RESULT:      -6.0      3.480      7.605
REMARK  6 active torsions:
REMARK  status: ('A' for Active; 'I' for Inactive)
REMARK    1  A    between atoms: CAX_6  and  CAW_7 
REMARK       I    between atoms: CAW_7  and  NAR_9 
REMARK    2  A    between atoms: CAO_16  and  CAN_18 
REMARK    3  A    between atoms: CAN_18  and  CAL_19 
REMARK    4  A    between atoms: CAL_19  and  NAM_20 
REMARK    5  A    between atoms: CAL_19  and  CAK_21 
REMARK    6  A    between atoms: CAK_21  and  CAG_22 
ROOT
ATOM      1  CAW KR2 d          -3.894   3.046  -1.611  0.00  0.00     0.250 C 
ATOM      2  OAA KR2 d          -2.567   3.268  -2.101  0.00  0.00    -0.199 OA
ATOM      3  NAR KR2 d          -4.847   2.812  -2.709  0.00  0.00    -0.181 NA
ATOM      4  CAV KR2 d          -5.295   1.410  -2.674  0.00  0.00     0.001 C 
ATOM      5  CDD KR2 d          -5.296   0.706  -4.033  0.00  0.00    -0.052 C 
ATOM      6  CNN KR2 d          -3.890   0.381  -4.544  0.00  0.00    -0.062 C 
ATOM      7  CAT KR2 d          -3.236   1.548  -5.292  0.00  0.00    -0.049 C 
ATOM      8  CAS KR2 d          -3.002   2.779  -4.409  0.00  0.00     0.013 C 
ATOM      9  NAQ KR2 d          -4.284   3.259  -3.864  0.00  0.00    -0.288 N 
ATOM     10  CAO KR2 d          -5.110   3.973  -4.620  0.00  0.00     0.170 C 
ATOM     11  OAP KR2 d          -6.445   4.062  -4.391  0.00  0.00    -0.176 OA
ATOM     12  H6  KR2 d          -6.320   1.387  -2.276  0.00  0.00     0.058 H 
ATOM     13  H7  KR2 d          -4.628   0.854  -2.000  0.00  0.00     0.058 H 
ATOM     14  H8  KR2 d          -5.792   1.361  -4.765  0.00  0.00     0.034 H 
ATOM     15  H9  KR2 d          -5.860  -0.233  -3.939  0.00  0.00     0.034 H 
ATOM     16  H10 KR2 d          -3.957  -0.479  -5.227  0.00  0.00     0.033 H 
ATOM     17  H11 KR2 d          -3.257   0.118  -3.683  0.00  0.00     0.033 H 
ATOM     18  H12 KR2 d          -3.891   1.837  -6.128  0.00  0.00     0.035 H 
ATOM     19  H13 KR2 d          -2.266   1.211  -5.685  0.00  0.00     0.035 H 
ATOM     20  H14 KR2 d          -2.540   3.576  -5.010  0.00  0.00     0.066 H 
ATOM     21  H15 KR2 d          -2.331   2.510  -3.580  0.00  0.00     0.066 H 
ENDROOT
BRANCH  10  22
ATOM     22  CAN KR2 d          -4.566   4.665  -5.867  0.00  0.00     0.025 C 
ATOM     23  H16 KR2 d          -3.492   4.451  -5.961  0.00  0.00     0.048 H 
ATOM     24  H17 KR2 d          -4.718   5.752  -5.774  0.00  0.00     0.048 H 
BRANCH  22  25
ATOM     25  CAL KR2 d          -5.292   4.160  -7.114  0.00  0.00     0.111 C 
ATOM     26  H18 KR2 d          -6.256   3.720  -6.818  0.00  0.00     0.085 H 
BRANCH  25  27
ATOM     27  NAM KR2 d          -4.397   3.176  -7.738  0.00  0.00    -0.074 N 
ATOM     28  H19 KR2 d          -4.731   2.246  -7.541  0.00  0.00     0.274 HD
ATOM     29  H20 KR2 d          -3.467   3.285  -7.367  0.00  0.00     0.274 HD
ATOM     30  H21 KR2 d          -4.381   3.323  -8.736  0.00  0.00     0.274 HD
ENDBRANCH  25  27
BRANCH  25  31
ATOM     31  CAK KR2 d          -5.499   5.162  -8.249  0.00  0.00    -0.011 C 
ATOM     32  H22 KR2 d          -6.297   5.845  -7.922  0.00  0.00     0.043 H 
ATOM     33  H23 KR2 d          -5.845   4.582  -9.118  0.00  0.00     0.043 H 
BRANCH  31  34
ATOM     34  CAG KR2 d          -4.454   5.963  -8.699  0.00  0.00    -0.015 A 
ATOM     35  CAH KR2 d          -3.789   6.809  -7.824  0.00  0.00    -0.034 A 
ATOM     36  CAC KR2 d          -2.902   7.783  -8.275  0.00  0.00     0.155 A 
ATOM     37  H24 KR2 d          -3.964   6.709  -6.759  0.00  0.00     0.089 H 
ATOM     38  FAB KR2 d          -2.170   8.457  -7.370  0.00  0.00    -0.203 F 
ATOM     39  CAD KR2 d          -2.700   7.928  -9.644  0.00  0.00     0.157 A 
ATOM     40  FAI KR2 d          -2.163   9.050 -10.163  0.00  0.00    -0.203 F 
ATOM     41  CAE KR2 d          -3.296   7.027 -10.515  0.00  0.00    -0.005 A 
ATOM     42  CAF KR2 d          -4.159   6.037 -10.058  0.00  0.00     0.125 A 
ATOM     43  H25 KR2 d          -3.086   7.097 -11.577  0.00  0.00     0.093 H 
ATOM     44  FAJ KR2 d          -4.750   5.245 -10.968  0.00  0.00    -0.205 F 
ENDBRANCH  31  34
ENDBRANCH  25  31
ENDBRANCH  22  25
ENDBRANCH  10  22
BRANCH   1  45
ATOM     45  CAX KR2 d          -4.402   4.346  -0.975  0.00  0.00     0.001 A 
ATOM     46  CAY KR2 d          -3.783   5.555  -1.280  0.00  0.00    -0.072 A 
ATOM     47  CBC KR2 d          -4.060   6.692  -0.525  0.00  0.00    -0.082 A 
ATOM     48  H1  KR2 d          -3.084   5.612  -2.107  0.00  0.00     0.084 H 
ATOM     49  CBB KR2 d          -4.960   6.621   0.536  0.00  0.00    -0.083 A 
ATOM     50  H2  KR2 d          -3.576   7.632  -0.763  0.00  0.00     0.083 H 
ATOM     51  CBA KR2 d          -5.589   5.414   0.833  0.00  0.00    -0.082 A 
ATOM     52  H3  KR2 d          -5.170   7.503   1.129  0.00  0.00     0.083 H 
ATOM     53  CAZ KR2 d          -5.315   4.279   0.074  0.00  0.00    -0.072 A 
ATOM     54  H4  KR2 d          -6.294   5.358   1.655  0.00  0.00     0.083 H 
ATOM     55  H5  KR2 d          -5.812   3.343   0.301  0.00  0.00     0.084 H 
ENDBRANCH   1  45
TORSDOF 6
ENDMDL
MODEL 8
REMARK VINA RESULT:      -5.2      1.515      3.865
REMARK  6 active torsions:
REMARK  status: ('A' for Active; 'I' for Inactive)
REMARK    1  A    between atoms: CAX_6  and  CAW_7 
REMARK       I    between atoms: CAW_7  and  NAR_9 
REMARK    2  A    between atoms: CAO_16  and  CAN_18 
REMARK    3  A    between atoms: CAN_18  and  CAL_19 
REMARK    4  A    between atoms: CAL_19  and  NAM_20 
REMARK    5  A    between atoms: CAL_19  and  CAK_21 
REMARK    6  A    between atoms: CAK_21  and  CAG_22 
ROOT
ATOM      1  CAW KR2 d          -2.845   4.023  -9.394  0.00  0.00     0.250 C 
ATOM      2  OAA KR2 d          -3.866   3.051  -9.650  0.00  0.00    -0.199 OA
ATOM      3  NAR KR2 d          -2.816   4.421  -7.977  0.00  0.00    -0.181 NA
ATOM      4  CAV KR2 d          -1.585   3.911  -7.352  0.00  0.00     0.001 C 
ATOM      5  CDD KR2 d          -1.789   3.243  -5.991  0.00  0.00    -0.052 C 
ATOM      6  CNN KR2 d          -2.463   1.872  -6.087  0.00  0.00    -0.062 C 
ATOM      7  CAT KR2 d          -3.992   1.955  -6.134  0.00  0.00    -0.049 C 
ATOM      8  CAS KR2 d          -4.523   2.684  -7.373  0.00  0.00     0.013 C 
ATOM      9  NAQ KR2 d          -4.000   4.060  -7.410  0.00  0.00    -0.288 N 
ATOM     10  CAO KR2 d          -4.533   5.003  -6.641  0.00  0.00     0.170 C 
ATOM     11  OAP KR2 d          -3.869   6.126  -6.264  0.00  0.00    -0.176 OA
ATOM     12  H6  KR2 d          -0.892   4.755  -7.219  0.00  0.00     0.058 H 
ATOM     13  H7  KR2 d          -1.136   3.173  -8.033  0.00  0.00     0.058 H 
ATOM     14  H8  KR2 d          -2.417   3.899  -5.370  0.00  0.00     0.034 H 
ATOM     15  H9  KR2 d          -0.807   3.117  -5.513  0.00  0.00     0.034 H 
ATOM     16  H10 KR2 d          -2.171   1.276  -5.210  0.00  0.00     0.033 H 
ATOM     17  H11 KR2 d          -2.111   1.373  -7.003  0.00  0.00     0.033 H 
ATOM     18  H12 KR2 d          -4.340   2.490  -5.238  0.00  0.00     0.035 H 
ATOM     19  H13 KR2 d          -4.397   0.932  -6.130  0.00  0.00     0.035 H 
ATOM     20  H14 KR2 d          -5.622   2.713  -7.336  0.00  0.00     0.066 H 
ATOM     21  H15 KR2 d          -4.201   2.147  -8.277  0.00  0.00     0.066 H 
ENDROOT
BRANCH  10  22
ATOM     22  CAN KR2 d          -5.932   4.792  -6.068  0.00  0.00     0.025 C 
ATOM     23  H16 KR2 d          -6.292   3.792  -6.350  0.00  0.00     0.048 H 
ATOM     24  H17 KR2 d          -6.611   5.555  -6.479  0.00  0.00     0.048 H 
BRANCH  22  25
ATOM     25  CAL KR2 d          -5.905   4.908  -4.545  0.00  0.00     0.111 C 
ATOM     26  H18 KR2 d          -6.466   4.069  -4.107  0.00  0.00     0.085 H 
BRANCH  25  27
ATOM     27  NAM KR2 d          -6.505   6.210  -4.222  0.00  0.00    -0.074 N 
ATOM     28  H19 KR2 d          -7.101   6.502  -4.980  0.00  0.00     0.274 HD
ATOM     29  H20 KR2 d          -5.776   6.892  -4.085  0.00  0.00     0.274 HD
ATOM     30  H21 KR2 d          -7.051   6.128  -3.378  0.00  0.00     0.274 HD
ENDBRANCH  25  27
BRANCH  25  31
ATOM     31  CAK KR2 d          -4.532   5.023  -3.882  0.00  0.00    -0.011 C 
ATOM     32  H22 KR2 d          -4.160   6.033  -4.106  0.00  0.00     0.043 H 
ATOM     33  H23 KR2 d          -3.887   4.278  -4.372  0.00  0.00     0.043 H 
BRANCH  31  34
ATOM     34  CAG KR2 d          -4.378   4.839  -2.512  0.00  0.00    -0.015 A 
ATOM     35  CAH KR2 d          -4.730   5.844  -1.624  0.00  0.00    -0.034 A 
ATOM     36  CAC KR2 d          -4.382   5.790  -0.277  0.00  0.00     0.155 A 
ATOM     37  H24 KR2 d          -5.292   6.697  -1.989  0.00  0.00     0.089 H 
ATOM     38  FAB KR2 d          -4.893   6.713   0.559  0.00  0.00    -0.203 F 
ATOM     39  CAD KR2 d          -3.638   4.708   0.184  0.00  0.00     0.157 A 
ATOM     40  FAI KR2 d          -2.965   4.760   1.351  0.00  0.00    -0.203 F 
ATOM     41  CAE KR2 d          -3.360   3.660  -0.683  0.00  0.00    -0.005 A 
ATOM     42  CAF KR2 d          -3.735   3.706  -2.021  0.00  0.00     0.125 A 
ATOM     43  H25 KR2 d          -2.839   2.786  -0.308  0.00  0.00     0.093 H 
ATOM     44  FAJ KR2 d          -3.372   2.683  -2.813  0.00  0.00    -0.205 F 
ENDBRANCH  31  34
ENDBRANCH  25  31
ENDBRANCH  22  25
ENDBRANCH  10  22
BRANCH   1  45
ATOM     45  CAX KR2 d          -3.216   5.322 -10.118  0.00  0.00     0.001 A 
ATOM     46  CAY KR2 d          -2.321   6.389 -10.130  0.00  0.00    -0.072 A 
ATOM     47  CBC KR2 d          -2.740   7.648 -10.554  0.00  0.00    -0.082 A 
ATOM     48  H1  KR2 d          -1.296   6.240  -9.809  0.00  0.00     0.084 H 
ATOM     49  CBB KR2 d          -4.057   7.840 -10.969  0.00  0.00    -0.083 A 
ATOM     50  H2  KR2 d          -2.043   8.478 -10.561  0.00  0.00     0.083 H 
ATOM     51  CBA KR2 d          -4.948   6.770 -10.969  0.00  0.00    -0.082 A 
ATOM     52  H3  KR2 d          -4.386   8.821 -11.291  0.00  0.00     0.083 H 
ATOM     53  CAZ KR2 d          -4.527   5.511 -10.549  0.00  0.00    -0.072 A 
ATOM     54  H4  KR2 d          -5.971   6.917 -11.296  0.00  0.00     0.083 H 
ATOM     55  H5  KR2 d          -5.220   4.677 -10.558  0.00  0.00     0.084 H 
ENDBRANCH   1  45
TORSDOF 6
ENDMDL
MODEL 9
REMARK VINA RESULT:      -4.7      1.852      3.191
REMARK  6 active torsions:
REMARK  status: ('A' for Active; 'I' for Inactive)
REMARK    1  A    between atoms: CAX_6  and  CAW_7 
REMARK       I    between atoms: CAW_7  and  NAR_9 
REMARK    2  A    between atoms: CAO_16  and  CAN_18 
REMARK    3  A    between atoms: CAN_18  and  CAL_19 
REMARK    4  A    between atoms: CAL_19  and  NAM_20 
REMARK    5  A    between atoms: CAL_19  and  CAK_21 
REMARK    6  A    between atoms: CAK_21  and  CAG_22 
ROOT
ATOM      1  CAW KR2 d          -2.641   5.452  -8.533  0.00  0.00     0.250 C 
ATOM      2  OAA KR2 d          -1.328   5.494  -7.962  0.00  0.00    -0.199 OA
ATOM      3  NAR KR2 d          -3.656   5.074  -7.535  0.00  0.00    -0.181 NA
ATOM      4  CAV KR2 d          -4.517   6.234  -7.253  0.00  0.00     0.001 C 
ATOM      5  CDD KR2 d          -4.783   6.485  -5.768  0.00  0.00    -0.052 C 
ATOM      6  CNN KR2 d          -3.568   7.043  -5.023  0.00  0.00    -0.062 C 
ATOM      7  CAT KR2 d          -2.608   5.952  -4.536  0.00  0.00    -0.049 C 
ATOM      8  CAS KR2 d          -1.971   5.150  -5.677  0.00  0.00     0.013 C 
ATOM      9  NAQ KR2 d          -3.020   4.497  -6.479  0.00  0.00    -0.288 N 
ATOM     10  CAO KR2 d          -3.607   3.388  -6.044  0.00  0.00     0.170 C 
ATOM     11  OAP KR2 d          -4.839   2.986  -6.447  0.00  0.00    -0.176 OA
ATOM     12  H6  KR2 d          -5.484   6.072  -7.752  0.00  0.00     0.058 H 
ATOM     13  H7  KR2 d          -4.035   7.129  -7.671  0.00  0.00     0.058 H 
ATOM     14  H8  KR2 d          -5.074   5.533  -5.299  0.00  0.00     0.034 H 
ATOM     15  H9  KR2 d          -5.609   7.206  -5.678  0.00  0.00     0.034 H 
ATOM     16  H10 KR2 d          -3.923   7.612  -4.151  0.00  0.00     0.033 H 
ATOM     17  H11 KR2 d          -3.020   7.714  -5.701  0.00  0.00     0.033 H 
ATOM     18  H12 KR2 d          -3.166   5.258  -3.891  0.00  0.00     0.035 H 
ATOM     19  H13 KR2 d          -1.805   6.428  -3.954  0.00  0.00     0.035 H 
ATOM     20  H14 KR2 d          -1.304   4.384  -5.256  0.00  0.00     0.066 H 
ATOM     21  H15 KR2 d          -1.390   5.829  -6.319  0.00  0.00     0.066 H 
ENDROOT
BRANCH  10  22
ATOM     22  CAN KR2 d          -2.916   2.555  -4.967  0.00  0.00     0.025 C 
ATOM     23  H16 KR2 d          -2.567   3.220  -4.163  0.00  0.00     0.048 H 
ATOM     24  H17 KR2 d          -2.055   2.032  -5.410  0.00  0.00     0.048 H 
BRANCH  22  25
ATOM     25  CAL KR2 d          -3.887   1.528  -4.386  0.00  0.00     0.111 C 
ATOM     26  H18 KR2 d          -3.392   0.547  -4.340  0.00  0.00     0.085 H 
BRANCH  25  27
ATOM     27  NAM KR2 d          -5.057   1.521  -5.275  0.00  0.00    -0.074 N 
ATOM     28  H19 KR2 d          -5.583   2.371  -5.144  0.00  0.00     0.274 HD
ATOM     29  H20 KR2 d          -5.640   0.729  -5.057  0.00  0.00     0.274 HD
ATOM     30  H21 KR2 d          -4.750   1.459  -6.233  0.00  0.00     0.274 HD
ENDBRANCH  25  27
BRANCH  25  31
ATOM     31  CAK KR2 d          -4.520   1.859  -3.036  0.00  0.00    -0.011 C 
ATOM     32  H22 KR2 d          -4.280   1.022  -2.364  0.00  0.00     0.043 H 
ATOM     33  H23 KR2 d          -5.607   1.896  -3.201  0.00  0.00     0.043 H 
BRANCH  31  34
ATOM     34  CAG KR2 d          -4.185   3.023  -2.351  0.00  0.00    -0.015 A 
ATOM     35  CAH KR2 d          -3.342   2.974  -1.252  0.00  0.00    -0.034 A 
ATOM     36  CAC KR2 d          -3.167   4.071  -0.410  0.00  0.00     0.155 A 
ATOM     37  H24 KR2 d          -2.803   2.058  -1.041  0.00  0.00     0.089 H 
ATOM     38  FAB KR2 d          -2.215   4.010   0.538  0.00  0.00    -0.203 F 
ATOM     39  CAD KR2 d          -3.879   5.238  -0.668  0.00  0.00     0.157 A 
ATOM     40  FAI KR2 d          -4.046   6.185   0.276  0.00  0.00    -0.203 F 
ATOM     41  CAE KR2 d          -4.656   5.318  -1.815  0.00  0.00    -0.005 A 
ATOM     42  CAF KR2 d          -4.805   4.229  -2.668  0.00  0.00     0.125 A 
ATOM     43  H25 KR2 d          -5.158   6.249  -2.052  0.00  0.00     0.093 H 
ATOM     44  FAJ KR2 d          -5.626   4.363  -3.723  0.00  0.00    -0.205 F 
ENDBRANCH  31  34
ENDBRANCH  25  31
ENDBRANCH  22  25
ENDBRANCH  10  22
BRANCH   1  45
ATOM     45  CAX KR2 d          -2.696   4.302  -9.545  0.00  0.00     0.001 A 
ATOM     46  CAY KR2 d          -3.925   3.868 -10.035  0.00  0.00    -0.072 A 
ATOM     47  CBC KR2 d          -4.011   2.673 -10.745  0.00  0.00    -0.082 A 
ATOM     48  H1  KR2 d          -4.816   4.461  -9.863  0.00  0.00     0.084 H 
ATOM     49  CBB KR2 d          -2.866   1.912 -10.969  0.00  0.00    -0.083 A 
ATOM     50  H2  KR2 d          -4.969   2.335 -11.124  0.00  0.00     0.083 H 
ATOM     51  CBA KR2 d          -1.634   2.353 -10.490  0.00  0.00    -0.082 A 
ATOM     52  H3  KR2 d          -2.933   0.978 -11.514  0.00  0.00     0.083 H 
ATOM     53  CAZ KR2 d          -1.548   3.550  -9.784  0.00  0.00    -0.072 A 
ATOM     54  H4  KR2 d          -0.741   1.764 -10.668  0.00  0.00     0.083 H 
ATOM     55  H5  KR2 d          -0.588   3.896  -9.419  0.00  0.00     0.084 H 
ENDBRANCH   1  45
TORSDOF 6
ENDMDL
MODEL 10
REMARK VINA RESULT:      -4.6      3.719      7.451
REMARK  6 active torsions:
REMARK  status: ('A' for Active; 'I' for Inactive)
REMARK    1  A    between atoms: CAX_6  and  CAW_7 
REMARK       I    between atoms: CAW_7  and  NAR_9 
REMARK    2  A    between atoms: CAO_16  and  CAN_18 
REMARK    3  A    between atoms: CAN_18  and  CAL_19 
REMARK    4  A    between atoms: CAL_19  and  NAM_20 
REMARK    5  A    between atoms: CAL_19  and  CAK_21 
REMARK    6  A    between atoms: CAK_21  and  CAG_22 
ROOT
ATOM      1  CAW KR2 d          -4.037   2.311  -3.042  0.00  0.00     0.250 C 
ATOM      2  OAA KR2 d          -2.788   2.193  -3.733  0.00  0.00    -0.199 OA
ATOM      3  NAR KR2 d          -5.151   2.564  -3.972  0.00  0.00    -0.181 NA
ATOM      4  CAV KR2 d          -6.026   1.381  -4.017  0.00  0.00     0.001 C 
ATOM      5  CDD KR2 d          -6.438   0.945  -5.425  0.00  0.00    -0.052 C 
ATOM      6  CNN KR2 d          -5.298   0.294  -6.212  0.00  0.00    -0.062 C 
ATOM      7  CAT KR2 d          -4.402   1.312  -6.927  0.00  0.00    -0.049 C 
ATOM      8  CAS KR2 d          -3.662   2.249  -5.967  0.00  0.00     0.013 C 
ATOM      9  NAQ KR2 d          -4.630   3.001  -5.151  0.00  0.00    -0.288 N 
ATOM     10  CAO KR2 d          -5.268   4.048  -5.661  0.00  0.00     0.170 C 
ATOM     11  OAP KR2 d          -6.457   4.502  -5.188  0.00  0.00    -0.176 OA
ATOM     12  H6  KR2 d          -6.939   1.607  -3.447  0.00  0.00     0.058 H 
ATOM     13  H7  KR2 d          -5.495   0.544  -3.541  0.00  0.00     0.058 H 
ATOM     14  H8  KR2 d          -6.784   1.831  -5.978  0.00  0.00     0.034 H 
ATOM     15  H9  KR2 d          -7.261   0.222  -5.339  0.00  0.00     0.034 H 
ATOM     16  H10 KR2 d          -5.734  -0.379  -6.966  0.00  0.00     0.033 H 
ATOM     17  H11 KR2 d          -4.678  -0.288  -5.514  0.00  0.00     0.033 H 
ATOM     18  H12 KR2 d          -5.030   1.921  -7.595  0.00  0.00     0.035 H 
ATOM     19  H13 KR2 d          -3.658   0.763  -7.523  0.00  0.00     0.035 H 
ATOM     20  H14 KR2 d          -3.048   2.954  -6.546  0.00  0.00     0.066 H 
ATOM     21  H15 KR2 d          -3.013   1.654  -5.307  0.00  0.00     0.066 H 
ENDROOT
BRANCH  10  22
ATOM     22  CAN KR2 d          -4.698   4.737  -6.898  0.00  0.00     0.025 C 
ATOM     23  H16 KR2 d          -3.830   4.167  -7.262  0.00  0.00     0.048 H 
ATOM     24  H17 KR2 d          -4.382   5.757  -6.632  0.00  0.00     0.048 H 
BRANCH  22  25
ATOM     25  CAL KR2 d          -5.753   4.807  -8.001  0.00  0.00     0.111 C 
ATOM     26  H18 KR2 d          -6.359   5.715  -7.865  0.00  0.00     0.085 H 
BRANCH  25  27
ATOM     27  NAM KR2 d          -6.553   3.580  -7.882  0.00  0.00    -0.074 N 
ATOM     28  H19 KR2 d          -7.211   3.533  -8.644  0.00  0.00     0.274 HD
ATOM     29  H20 KR2 d          -7.052   3.588  -7.007  0.00  0.00     0.274 HD
ATOM     30  H21 KR2 d          -5.944   2.777  -7.913  0.00  0.00     0.274 HD
ENDBRANCH  25  27
BRANCH  25  31
ATOM     31  CAK KR2 d          -5.256   4.719  -9.443  0.00  0.00    -0.011 C 
ATOM     32  H22 KR2 d          -4.844   5.708  -9.693  0.00  0.00     0.043 H 
ATOM     33  H23 KR2 d          -6.140   4.521 -10.067  0.00  0.00     0.043 H 
BRANCH  31  34
ATOM     34  CAG KR2 d          -4.293   3.785  -9.815  0.00  0.00    -0.015 A 
ATOM     35  CAH KR2 d          -4.668   2.520 -10.240  0.00  0.00    -0.034 A 
ATOM     36  CAC KR2 d          -3.741   1.493 -10.400  0.00  0.00     0.155 A 
ATOM     37  H24 KR2 d          -5.713   2.324 -10.454  0.00  0.00     0.089 H 
ATOM     38  FAB KR2 d          -4.145   0.343 -10.969  0.00  0.00    -0.203 F 
ATOM     39  CAD KR2 d          -2.405   1.739 -10.099  0.00  0.00     0.157 A 
ATOM     40  FAI KR2 d          -1.535   0.734  -9.877  0.00  0.00    -0.203 F 
ATOM     41  CAE KR2 d          -2.014   3.027  -9.758  0.00  0.00    -0.005 A 
ATOM     42  CAF KR2 d          -2.940   4.056  -9.628  0.00  0.00     0.125 A 
ATOM     43  H25 KR2 d          -0.964   3.235  -9.589  0.00  0.00     0.093 H 
ATOM     44  FAJ KR2 d          -2.495   5.259  -9.229  0.00  0.00    -0.205 F 
ENDBRANCH  31  34
ENDBRANCH  25  31
ENDBRANCH  22  25
ENDBRANCH  10  22
BRANCH   1  45
ATOM     45  CAX KR2 d          -4.001   3.580  -2.183  0.00  0.00     0.001 A 
ATOM     46  CAY KR2 d          -4.849   3.698  -1.085  0.00  0.00    -0.072 A 
ATOM     47  CBC KR2 d          -5.010   4.930  -0.456  0.00  0.00    -0.082 A 
ATOM     48  H1  KR2 d          -5.384   2.829  -0.719  0.00  0.00     0.084 H 
ATOM     49  CBB KR2 d          -4.320   6.047  -0.924  0.00  0.00    -0.083 A 
ATOM     50  H2  KR2 d          -5.672   5.021   0.397  0.00  0.00     0.083 H 
ATOM     51  CBA KR2 d          -3.462   5.925  -2.015  0.00  0.00    -0.082 A 
ATOM     52  H3  KR2 d          -4.452   7.008  -0.441  0.00  0.00     0.083 H 
ATOM     53  CAZ KR2 d          -3.298   4.692  -2.640  0.00  0.00    -0.072 A 
ATOM     54  H4  KR2 d          -2.921   6.792  -2.377  0.00  0.00     0.083 H 
ATOM     55  H5  KR2 d          -2.623   4.598  -3.483  0.00  0.00     0.084 H 
ENDBRANCH   1  45
TORSDOF 6
ENDMDL
