MODEL 1
REMARK VINA RESULT:      -9.6      0.000      0.000
REMARK  7 active torsions:
REMARK  status: ('A' for Active; 'I' for Inactive)
REMARK    1  A    between atoms: C2_3  and  C5_9 
REMARK    2  A    between atoms: C11_15  and  C2_3 
REMARK    3  A    between atoms: C3_5  and  N3_7 
REMARK    4  A    between atoms: N2_6  and  C4_8 
REMARK    5  A    between atoms: C19_23  and  C15_19 
REMARK    6  A    between atoms: C22_26  and  O2_27 
REMARK    7  A    between atoms: O2_27  and  C23_28 
ROOT
ATOM      1  O1  MOL d          22.751  13.063  22.040  0.00  0.00    -0.269 OA
ATOM      2  C1  MOL d          22.644  11.894  22.356  0.00  0.00     0.276 A 
ATOM      3  C2  MOL d          22.388  10.684  21.379  0.00  0.00     0.183 A 
ATOM      4  N1  MOL d          22.530   9.516  22.310  0.00  0.00    -0.199 N 
ATOM      5  C3  MOL d          22.686   9.966  23.565  0.00  0.00     0.677 A 
ATOM      6  N2  MOL d          22.797  11.385  23.625  0.00  0.00    -0.153 N 
ATOM      7  H1  MOL d          22.512   8.524  22.030  0.00  0.00     0.179 HD
ENDROOT
BRANCH   3   8
ATOM      8  C5  MOL d          20.958  10.735  20.804  0.00  0.00    -0.015 A 
ATOM      9  C6  MOL d          20.199   9.574  20.695  0.00  0.00    -0.074 A 
ATOM     10  C7  MOL d          18.900   9.614  20.190  0.00  0.00    -0.082 A 
ATOM     11  H7  MOL d          20.623   8.626  21.006  0.00  0.00     0.084 H 
ATOM     12  C8  MOL d          18.345  10.809  19.795  0.00  0.00    -0.083 A 
ATOM     13  H8  MOL d          18.324   8.698  20.108  0.00  0.00     0.083 H 
ATOM     14  C9  MOL d          19.086  11.972  19.891  0.00  0.00    -0.082 A 
ATOM     15  H9  MOL d          17.333  10.839  19.410  0.00  0.00     0.083 H 
ATOM     16  C10 MOL d          20.388  11.936  20.386  0.00  0.00    -0.074 A 
ATOM     17  H10 MOL d          18.652  12.916  19.581  0.00  0.00     0.083 H 
ATOM     18  H11 MOL d          20.964  12.853  20.447  0.00  0.00     0.084 H 
ENDBRANCH   3   8
BRANCH   3  19
ATOM     19  C11 MOL d          23.504  10.689  20.318  0.00  0.00    -0.015 A 
ATOM     20  C12 MOL d          23.219  10.881  18.969  0.00  0.00    -0.074 A 
ATOM     21  C13 MOL d          24.240  11.026  18.042  0.00  0.00    -0.082 A 
ATOM     22  H12 MOL d          22.187  10.917  18.639  0.00  0.00     0.084 H 
ATOM     23  C14 MOL d          25.559  10.968  18.451  0.00  0.00    -0.072 A 
ATOM     24  H13 MOL d          24.003  11.186  16.996  0.00  0.00     0.083 H 
ATOM     25  C15 MOL d          25.878  10.745  19.794  0.00  0.00    -0.025 A 
ATOM     26  H14 MOL d          26.354  11.096  17.724  0.00  0.00     0.084 H 
ATOM     27  C16 MOL d          24.837  10.600  20.720  0.00  0.00    -0.063 A 
ATOM     28  H15 MOL d          25.070  10.417  21.763  0.00  0.00     0.085 H 
BRANCH  25  29
ATOM     29  C19 MOL d          27.291  10.673  20.253  0.00  0.00    -0.023 A 
ATOM     30  C18 MOL d          27.708   9.618  21.067  0.00  0.00    -0.040 A 
ATOM     31  C22 MOL d          28.961   9.630  21.667  0.00  0.00     0.069 A 
ATOM     32  H17 MOL d          27.044   8.778  21.233  0.00  0.00     0.089 H 
ATOM     33  C17 MOL d          29.833  10.692  21.451  0.00  0.00    -0.051 A 
ATOM     34  C21 MOL d          29.449  11.721  20.604  0.00  0.00    -0.080 A 
ATOM     35  H16 MOL d          30.801  10.716  21.939  0.00  0.00     0.087 H 
ATOM     36  C20 MOL d          28.191  11.713  20.009  0.00  0.00    -0.072 A 
ATOM     37  H19 MOL d          30.133  12.537  20.403  0.00  0.00     0.083 H 
ATOM     38  H18 MOL d          27.906  12.524  19.348  0.00  0.00     0.084 H 
BRANCH  31  39
ATOM     39  O2  MOL d          29.199   8.547  22.478  0.00  0.00    -0.356 OA
BRANCH  39  40
ATOM     40  C23 MOL d          30.030   8.741  23.633  0.00  0.00     0.010 C 
ATOM     41  H20 MOL d          29.479   9.322  24.387  0.00  0.00     0.066 H 
ATOM     42  H21 MOL d          30.940   9.287  23.343  0.00  0.00     0.066 H 
ATOM     43  H22 MOL d          30.307   7.763  24.054  0.00  0.00     0.066 H 
ENDBRANCH  39  40
ENDBRANCH  31  39
ENDBRANCH  25  29
ENDBRANCH   3  19
BRANCH   6  44
ATOM     44  C4  MOL d          23.040  12.212  24.814  0.00  0.00     0.005 C 
ATOM     45  H4  MOL d          23.955  11.870  25.318  0.00  0.00     0.058 H 
ATOM     46  H5  MOL d          22.186  12.122  25.503  0.00  0.00     0.058 H 
ATOM     47  H6  MOL d          23.158  13.263  24.511  0.00  0.00     0.058 H 
ENDBRANCH   6  44
BRANCH   5  48
ATOM     48  N3  MOL d          22.795   9.199  24.648  0.00  0.00    -0.234 N 
ATOM     49  H2  MOL d          22.124   9.303  25.423  0.00  0.00     0.174 HD
ATOM     50  H3  MOL d          23.550   8.501  24.711  0.00  0.00     0.174 HD
ENDBRANCH   5  48
TORSDOF 7
ENDMDL
