REMARK  17 active torsions:
REMARK  status: ('A' for Active; 'I' for Inactive)
REMARK    1  A    between atoms: C_1  and  C2_4 
REMARK    2  A    between atoms: CA_14  and  N_13 
REMARK    3  A    between atoms: C1_15  and  CA_14 
REMARK    4  A    between atoms: CA_14  and  CB_17 
REMARK       I    between atoms: N2_24  and  C1_15 
REMARK    5  A    between atoms: CB_17  and  CG_18 
REMARK    6  A    between atoms: C9_21  and  O2_22 
REMARK    7  A    between atoms: CA1_23  and  C9_21 
REMARK    8  A    between atoms: C9_21  and  CM_33 
REMARK    9  A    between atoms: CA1_23  and  N2_24 
REMARK   10  A    between atoms: CA1_23  and  CB1_25 
REMARK   11  A    between atoms: CB1_25  and  CG1_26 
REMARK   12  A    between atoms: CM_33  and  N11_32 
REMARK   13  A    between atoms: C21_34  and  CC_35 
REMARK       I    between atoms: CC_35  and  N3_45 
REMARK   14  A    between atoms: N3_45  and  CD_46 
REMARK   15  A    between atoms: CD_46  and  C11_47 
REMARK   16  A    between atoms: CD_46  and  C22_48 
REMARK   17  A    between atoms: CD_46  and  C32_49 
ROOT
ATOM      1  C9  ROC d           0.912   4.911  10.031  0.00  0.00     0.078 C 
ATOM      2  H13 ROC d           1.462   4.585   9.136  0.00  0.00     0.088 H 
ENDROOT
BRANCH   1   3
ATOM      3  O2  ROC d           1.715   4.779  11.166  0.00  0.00    -0.392 OA
ATOM      4  H14 ROC d           2.494   5.313  11.065  0.00  0.00     0.210 HD
ENDBRANCH   1   3
BRANCH   1   5
ATOM      5  CA1 ROC d          -0.336   4.037  10.227  0.00  0.00     0.041 C 
ATOM      6  H15 ROC d          -0.897   4.479  11.064  0.00  0.00     0.076 H 
BRANCH   5   7
ATOM      7  N2  ROC d          -1.206   4.127   9.032  0.00  0.00    -0.363 N 
ATOM      8  C1  ROC d          -2.268   5.017   9.086  0.00  0.00     0.175 C 
ATOM      9  O1  ROC d          -2.659   5.951   9.958  0.00  0.00    -0.175 OA
ATOM     10  H16 ROC d          -1.035   3.569   8.220  0.00  0.00     0.162 HD
BRANCH   8  11
ATOM     11  CA  ROC d          -3.177   4.898   7.861  0.00  0.00     0.083 C 
ATOM     12  H8  ROC d          -2.544   5.047   6.974  0.00  0.00     0.086 H 
BRANCH  11  13
ATOM     13  N   ROC d          -3.735   3.571   7.783  0.00  0.00    -0.354 N 
ATOM     14  C   ROC d          -3.823   3.039   6.536  0.00  0.00     0.204 C 
ATOM     15  O   ROC d          -3.414   3.389   5.321  0.00  0.00    -0.170 OA
ATOM     16  H7  ROC d          -4.038   3.073   8.596  0.00  0.00     0.162 HD
BRANCH  14  17
ATOM     17  C2  ROC d          -4.626   1.735   6.560  0.00  0.00     0.111 A 
ATOM     18  N1  ROC d          -5.686   1.597   5.701  0.00  0.00    -0.244 NA
ATOM     19  C8A ROC d          -6.449   0.440   5.700  0.00  0.00     0.068 A 
ATOM     20  C8  ROC d          -7.512   0.333   4.828  0.00  0.00    -0.054 A 
ATOM     21  C4A ROC d          -6.136  -0.597   6.578  0.00  0.00    -0.007 A 
ATOM     22  C7  ROC d          -8.296  -0.845   4.827  0.00  0.00    -0.081 A 
ATOM     23  H6  ROC d          -7.745   1.145   4.149  0.00  0.00     0.087 H 
ATOM     24  C6  ROC d          -7.987  -1.875   5.692  0.00  0.00    -0.082 A 
ATOM     25  H5  ROC d          -9.137  -0.938   4.149  0.00  0.00     0.083 H 
ATOM     26  C5  ROC d          -6.915  -1.764   6.569  0.00  0.00    -0.071 A 
ATOM     27  H4  ROC d          -8.586  -2.779   5.687  0.00  0.00     0.083 H 
ATOM     28  H3  ROC d          -6.681  -2.578   7.245  0.00  0.00     0.084 H 
ATOM     29  C4  ROC d          -5.064  -0.467   7.446  0.00  0.00    -0.068 A 
ATOM     30  C3  ROC d          -4.307   0.697   7.445  0.00  0.00    -0.050 A 
ATOM     31  H2  ROC d          -4.816  -1.274   8.126  0.00  0.00     0.085 H 
ATOM     32  H1  ROC d          -3.471   0.802   8.127  0.00  0.00     0.087 H 
ENDBRANCH  14  17
ENDBRANCH  11  13
BRANCH  11  33
ATOM     33  CB  ROC d          -4.287   5.957   7.802  0.00  0.00     0.023 C 
ATOM     34  H9  ROC d          -3.889   6.910   8.182  0.00  0.00     0.049 H 
ATOM     35  H10 ROC d          -5.124   5.630   8.437  0.00  0.00     0.049 H 
BRANCH  33  36
ATOM     36  CG  ROC d          -4.808   6.173   6.362  0.00  0.00     0.151 C 
ATOM     37  OD1 ROC d          -3.863   6.676   5.529  0.00  0.00    -0.178 OA
ATOM     38  ND2 ROC d          -6.118   5.803   6.277  0.00  0.00    -0.381 N 
ATOM     39  H11 ROC d          -6.604   5.882   5.407  0.00  0.00     0.158 HD
ATOM     40  H12 ROC d          -6.592   5.453   7.085  0.00  0.00     0.158 HD
ENDBRANCH  33  36
ENDBRANCH  11  33
ENDBRANCH   8  11
ENDBRANCH   5   7
BRANCH   5  41
ATOM     41  CB1 ROC d          -0.048   2.594  10.631  0.00  0.00    -0.020 C 
ATOM     42  H17 ROC d           0.512   2.591  11.578  0.00  0.00     0.043 H 
ATOM     43  H18 ROC d           0.556   2.115   9.846  0.00  0.00     0.043 H 
BRANCH  41  44
ATOM     44  CG1 ROC d          -1.357   1.795  10.818  0.00  0.00    -0.056 A 
ATOM     45  CD1 ROC d          -2.438   2.334  11.490  0.00  0.00    -0.077 A 
ATOM     46  CE1 ROC d          -3.622   1.579  11.654  0.00  0.00    -0.082 A 
ATOM     47  H19 ROC d          -2.378   3.339  11.893  0.00  0.00     0.084 H 
ATOM     48  CZ  ROC d          -3.708   0.291  11.139  0.00  0.00    -0.083 A 
ATOM     49  H21 ROC d          -4.466   2.006  12.183  0.00  0.00     0.083 H 
ATOM     50  CE2 ROC d          -2.629  -0.252  10.468  0.00  0.00    -0.082 A 
ATOM     51  H23 ROC d          -4.618  -0.285  11.263  0.00  0.00     0.083 H 
ATOM     52  CD2 ROC d          -1.449   0.499  10.308  0.00  0.00    -0.077 A 
ATOM     53  H22 ROC d          -2.691  -1.256  10.065  0.00  0.00     0.083 H 
ATOM     54  H20 ROC d          -0.604   0.067   9.784  0.00  0.00     0.084 H 
ENDBRANCH  41  44
ENDBRANCH   5  41
ENDBRANCH   1   5
BRANCH   1  55
ATOM     55  CM  ROC d           0.511   6.350   9.886  0.00  0.00     0.110 C 
ATOM     56  H25 ROC d           0.147   6.707  10.861  0.00  0.00     0.080 H 
ATOM     57  H26 ROC d          -0.302   6.409   9.147  0.00  0.00     0.080 H 
BRANCH  55  58
ATOM     58  N11 ROC d           1.605   7.244   9.444  0.00  0.00    -0.057 N 
ATOM     59  C21 ROC d           2.683   7.420  10.459  0.00  0.00     0.167 C 
ATOM     60  C31 ROC d           3.716   8.403   9.938  0.00  0.00    -0.027 C 
ATOM     61  H27 ROC d           3.176   6.441  10.553  0.00  0.00     0.098 H 
ATOM     62  C3A ROC d           3.196   9.720   9.416  0.00  0.00    -0.047 C 
ATOM     63  H28 ROC d           4.260   7.911   9.118  0.00  0.00     0.037 H 
ATOM     64  H29 ROC d           4.412   8.622  10.761  0.00  0.00     0.037 H 
ATOM     65  C41 ROC d           2.796  10.662  10.570  0.00  0.00    -0.061 C 
ATOM     66  C7A ROC d           2.085   9.493   8.436  0.00  0.00    -0.027 C 
ATOM     67  H30 ROC d           4.017  10.208   8.870  0.00  0.00     0.040 H 
ATOM     68  C51 ROC d           2.235  11.950  10.108  0.00  0.00    -0.065 C 
ATOM     69  H31 ROC d           3.689  10.869  11.177  0.00  0.00     0.033 H 
ATOM     70  H32 ROC d           2.041  10.155  11.189  0.00  0.00     0.033 H 
ATOM     71  C61 ROC d           1.077  11.735   9.148  0.00  0.00    -0.065 C 
ATOM     72  H33 ROC d           3.023  12.521   9.596  0.00  0.00     0.033 H 
ATOM     73  H34 ROC d           1.877  12.518  10.979  0.00  0.00     0.033 H 
ATOM     74  C71 ROC d           1.435  10.786   8.001  0.00  0.00    -0.060 C 
ATOM     75  H35 ROC d           0.785  12.707   8.724  0.00  0.00     0.033 H 
ATOM     76  H36 ROC d           0.230  11.310   9.706  0.00  0.00     0.033 H 
ATOM     77  H37 ROC d           2.129  11.309   7.326  0.00  0.00     0.033 H 
ATOM     78  H38 ROC d           0.511  10.540   7.458  0.00  0.00     0.033 H 
ATOM     79  C81 ROC d           1.029   8.518   8.991  0.00  0.00     0.088 C 
ATOM     80  H39 ROC d           2.528   9.029   7.542  0.00  0.00     0.043 H 
ATOM     81  H40 ROC d           0.523   8.997   9.843  0.00  0.00     0.076 H 
ATOM     82  H41 ROC d           0.295   8.309   8.199  0.00  0.00     0.076 H 
ATOM     83  H24 ROC d           2.037   6.810   8.643  0.00  0.00     0.281 HD
BRANCH  59  84
ATOM     84  CC  ROC d           2.252   7.810  11.865  0.00  0.00     0.183 C 
ATOM     85  O3  ROC d           0.986   8.140  12.023  0.00  0.00    -0.175 OA
ATOM     86  N3  ROC d           3.312   7.742  12.766  0.00  0.00    -0.362 N 
ATOM     87  H42 ROC d           4.201   7.407  12.454  0.00  0.00     0.162 HD
BRANCH  86  88
ATOM     88  CD  ROC d           3.144   8.163  14.198  0.00  0.00     0.021 C 
BRANCH  88  89
ATOM     89  C11 ROC d           4.458   7.909  14.857  0.00  0.00    -0.054 C 
ATOM     90  H43 ROC d           4.399   8.199  15.916  0.00  0.00     0.030 H 
ATOM     91  H44 ROC d           5.239   8.501  14.357  0.00  0.00     0.030 H 
ATOM     92  H45 ROC d           4.705   6.840  14.783  0.00  0.00     0.030 H 
ENDBRANCH  88  89
BRANCH  88  93
ATOM     93  C22 ROC d           2.070   7.358  14.874  0.00  0.00    -0.054 C 
ATOM     94  H46 ROC d           1.968   7.686  15.919  0.00  0.00     0.030 H 
ATOM     95  H47 ROC d           2.340   6.292  14.849  0.00  0.00     0.030 H 
ATOM     96  H48 ROC d           1.115   7.506  14.349  0.00  0.00     0.030 H 
ENDBRANCH  88  93
BRANCH  88  97
ATOM     97  C32 ROC d           2.806   9.638  14.299  0.00  0.00    -0.054 C 
ATOM     98  H49 ROC d           2.689   9.916  15.357  0.00  0.00     0.030 H 
ATOM     99  H50 ROC d           1.867   9.837  13.762  0.00  0.00     0.030 H 
ATOM    100  H51 ROC d           3.617  10.232  13.851  0.00  0.00     0.030 H 
ENDBRANCH  88  97
ENDBRANCH  86  88
ENDBRANCH  59  84
ENDBRANCH  55  58
ENDBRANCH   1  55
TORSDOF 17
