MODEL 1
REMARK VINA RESULT:     -10.8      0.000      0.000
REMARK  17 active torsions:
REMARK  status: ('A' for Active; 'I' for Inactive)
REMARK    1  A    between atoms: C_1  and  C2_4 
REMARK    2  A    between atoms: CA_14  and  N_13 
REMARK    3  A    between atoms: C1_15  and  CA_14 
REMARK    4  A    between atoms: CA_14  and  CB_17 
REMARK       I    between atoms: N2_24  and  C1_15 
REMARK    5  A    between atoms: CB_17  and  CG_18 
REMARK    6  A    between atoms: C9_21  and  O2_22 
REMARK    7  A    between atoms: CA1_23  and  C9_21 
REMARK    8  A    between atoms: C9_21  and  CM_33 
REMARK    9  A    between atoms: CA1_23  and  N2_24 
REMARK   10  A    between atoms: CA1_23  and  CB1_25 
REMARK   11  A    between atoms: CB1_25  and  CG1_26 
REMARK   12  A    between atoms: CM_33  and  N11_32 
REMARK   13  A    between atoms: C21_34  and  CC_35 
REMARK       I    between atoms: CC_35  and  N3_45 
REMARK   14  A    between atoms: N3_45  and  CD_46 
REMARK   15  A    between atoms: CD_46  and  C11_47 
REMARK   16  A    between atoms: CD_46  and  C22_48 
REMARK   17  A    between atoms: CD_46  and  C32_49 
ROOT
ATOM      1  C9  ROC d           0.646   5.328   9.371  0.00  0.00     0.078 C 
ATOM      2  H13 ROC d           0.518   5.545   8.300  0.00  0.00     0.088 H 
ENDROOT
BRANCH   1   3
ATOM      3  O2  ROC d           1.811   4.585   9.577  0.00  0.00    -0.392 OA
ATOM      4  H14 ROC d           2.185   4.345   8.737  0.00  0.00     0.210 HD
ENDBRANCH   1   3
BRANCH   1   5
ATOM      5  CA1 ROC d          -0.543   4.501   9.884  0.00  0.00     0.041 C 
ATOM      6  H15 ROC d          -1.079   5.139  10.602  0.00  0.00     0.076 H 
BRANCH   5   7
ATOM      7  N2  ROC d          -1.480   4.224   8.772  0.00  0.00    -0.363 N 
ATOM      8  C1  ROC d          -2.227   5.289   8.292  0.00  0.00     0.175 C 
ATOM      9  O1  ROC d          -2.230   6.606   8.522  0.00  0.00    -0.175 OA
ATOM     10  H16 ROC d          -1.571   3.307   8.383  0.00  0.00     0.162 HD
BRANCH   8  11
ATOM     11  CA  ROC d          -3.266   4.841   7.261  0.00  0.00     0.083 C 
ATOM     12  H8  ROC d          -2.719   4.595   6.339  0.00  0.00     0.086 H 
BRANCH  11  13
ATOM     13  N   ROC d          -3.928   3.643   7.711  0.00  0.00    -0.354 N 
ATOM     14  C   ROC d          -3.896   2.591   6.852  0.00  0.00     0.204 C 
ATOM     15  O   ROC d          -3.297   2.325   5.696  0.00  0.00    -0.170 OA
ATOM     16  H7  ROC d          -4.382   3.588   8.601  0.00  0.00     0.162 HD
BRANCH  14  17
ATOM     17  C2  ROC d          -4.812   1.465   7.341  0.00  0.00     0.111 A 
ATOM     18  N1  ROC d          -5.660   1.713   8.390  0.00  0.00    -0.244 NA
ATOM     19  C8A ROC d          -6.494   0.718   8.874  0.00  0.00     0.068 A 
ATOM     20  C8  ROC d          -7.332   0.996   9.934  0.00  0.00    -0.054 A 
ATOM     21  C4A ROC d          -6.476  -0.547   8.289  0.00  0.00    -0.007 A 
ATOM     22  C7  ROC d          -8.182  -0.018  10.434  0.00  0.00    -0.081 A 
ATOM     23  H6  ROC d          -7.339   1.984  10.380  0.00  0.00     0.087 H 
ATOM     24  C6  ROC d          -8.170  -1.271   9.855  0.00  0.00    -0.082 A 
ATOM     25  H5  ROC d          -8.842   0.188  11.270  0.00  0.00     0.083 H 
ATOM     26  C5  ROC d          -7.325  -1.547   8.787  0.00  0.00    -0.071 A 
ATOM     27  H4  ROC d          -8.825  -2.046  10.237  0.00  0.00     0.083 H 
ATOM     28  H3  ROC d          -7.322  -2.535   8.340  0.00  0.00     0.084 H 
ATOM     29  C4  ROC d          -5.625  -0.804   7.226  0.00  0.00    -0.068 A 
ATOM     30  C3  ROC d          -4.788   0.196   6.749  0.00  0.00    -0.050 A 
ATOM     31  H2  ROC d          -5.613  -1.786   6.767  0.00  0.00     0.085 H 
ATOM     32  H1  ROC d          -4.119  -0.006   5.921  0.00  0.00     0.087 H 
ENDBRANCH  14  17
ENDBRANCH  11  13
BRANCH  11  33
ATOM     33  CB  ROC d          -4.292   5.924   6.898  0.00  0.00     0.023 C 
ATOM     34  H9  ROC d          -4.258   6.716   7.662  0.00  0.00     0.049 H 
ATOM     35  H10 ROC d          -5.295   5.472   6.883  0.00  0.00     0.049 H 
BRANCH  33  36
ATOM     36  CG  ROC d          -4.008   6.553   5.514  0.00  0.00     0.151 C 
ATOM     37  OD1 ROC d          -4.604   5.882   4.497  0.00  0.00    -0.178 OA
ATOM     38  ND2 ROC d          -3.207   7.649   5.653  0.00  0.00    -0.381 N 
ATOM     39  H11 ROC d          -2.931   8.171   4.846  0.00  0.00     0.158 HD
ATOM     40  H12 ROC d          -2.897   7.929   6.561  0.00  0.00     0.158 HD
ENDBRANCH  33  36
ENDBRANCH  11  33
ENDBRANCH   8  11
ENDBRANCH   5   7
BRANCH   5  41
ATOM     41  CB1 ROC d          -0.159   3.238  10.651  0.00  0.00    -0.020 C 
ATOM     42  H17 ROC d           0.219   3.522  11.644  0.00  0.00     0.043 H 
ATOM     43  H18 ROC d           0.630   2.708  10.097  0.00  0.00     0.043 H 
BRANCH  41  44
ATOM     44  CG1 ROC d          -1.373   2.299  10.823  0.00  0.00    -0.056 A 
ATOM     45  CD1 ROC d          -1.345   0.996  10.363  0.00  0.00    -0.077 A 
ATOM     46  CE1 ROC d          -2.473   0.160  10.527  0.00  0.00    -0.082 A 
ATOM     47  H19 ROC d          -0.455   0.614   9.874  0.00  0.00     0.084 H 
ATOM     48  CZ  ROC d          -3.616   0.640  11.153  0.00  0.00    -0.083 A 
ATOM     49  H21 ROC d          -2.446  -0.861  10.162  0.00  0.00     0.083 H 
ATOM     50  CE2 ROC d          -3.649   1.943  11.613  0.00  0.00    -0.082 A 
ATOM     51  H23 ROC d          -4.479  -0.004  11.281  0.00  0.00     0.083 H 
ATOM     52  CD2 ROC d          -2.527   2.777  11.447  0.00  0.00    -0.077 A 
ATOM     53  H22 ROC d          -4.539   2.323  12.102  0.00  0.00     0.083 H 
ATOM     54  H20 ROC d          -2.559   3.799  11.806  0.00  0.00     0.084 H 
ENDBRANCH  41  44
ENDBRANCH   5  41
ENDBRANCH   1   5
BRANCH   1  55
ATOM     55  CM  ROC d           0.747   6.611  10.143  0.00  0.00     0.110 C 
ATOM     56  H25 ROC d           1.084   6.375  11.163  0.00  0.00     0.080 H 
ATOM     57  H26 ROC d          -0.252   7.069  10.183  0.00  0.00     0.080 H 
BRANCH  55  58
ATOM     58  N11 ROC d           1.686   7.597   9.562  0.00  0.00    -0.057 N 
ATOM     59  C21 ROC d           2.836   7.927  10.452  0.00  0.00     0.167 C 
ATOM     60  C31 ROC d           3.697   8.992   9.796  0.00  0.00    -0.027 C 
ATOM     61  H27 ROC d           3.440   7.011  10.523  0.00  0.00     0.098 H 
ATOM     62  C3A ROC d           2.986  10.224   9.293  0.00  0.00    -0.047 C 
ATOM     63  H28 ROC d           4.206   8.527   8.939  0.00  0.00     0.037 H 
ATOM     64  H29 ROC d           4.445   9.317  10.535  0.00  0.00     0.037 H 
ATOM     65  C41 ROC d           2.604  11.165  10.454  0.00  0.00    -0.061 C 
ATOM     66  C7A ROC d           1.813   9.841   8.442  0.00  0.00    -0.027 C 
ATOM     67  H30 ROC d           3.689  10.773   8.649  0.00  0.00     0.040 H 
ATOM     68  C51 ROC d           1.862  12.366  10.015  0.00  0.00    -0.065 C 
ATOM     69  H31 ROC d           3.526  11.490  10.957  0.00  0.00     0.033 H 
ATOM     70  H32 ROC d           1.976  10.607  11.164  0.00  0.00     0.033 H 
ATOM     71  C61 ROC d           0.643  11.991   9.189  0.00  0.00    -0.065 C 
ATOM     72  H33 ROC d           2.527  12.996   9.407  0.00  0.00     0.033 H 
ATOM     73  H34 ROC d           1.534  12.928  10.902  0.00  0.00     0.033 H 
ATOM     74  C71 ROC d           0.985  11.039   8.040  0.00  0.00    -0.060 C 
ATOM     75  H35 ROC d           0.205  12.908   8.770  0.00  0.00     0.033 H 
ATOM     76  H36 ROC d          -0.092  11.502   9.846  0.00  0.00     0.033 H 
ATOM     77  H37 ROC d           1.545  11.604   7.280  0.00  0.00     0.033 H 
ATOM     78  H38 ROC d           0.043  10.675   7.604  0.00  0.00     0.033 H 
ATOM     79  C81 ROC d           0.932   8.783   9.134  0.00  0.00     0.088 C 
ATOM     80  H39 ROC d           2.211   9.390   7.521  0.00  0.00     0.043 H 
ATOM     81  H40 ROC d           0.465   9.240  10.020  0.00  0.00     0.076 H 
ATOM     82  H41 ROC d           0.148   8.466   8.430  0.00  0.00     0.076 H 
ATOM     83  H24 ROC d           2.080   7.179   8.733  0.00  0.00     0.281 HD
BRANCH  59  84
ATOM     84  CC  ROC d           2.509   8.327  11.883  0.00  0.00     0.183 C 
ATOM     85  O3  ROC d           1.267   8.694  12.124  0.00  0.00    -0.175 OA
ATOM     86  N3  ROC d           3.624   8.226  12.713  0.00  0.00    -0.362 N 
ATOM     87  H42 ROC d           4.480   7.865  12.344  0.00  0.00     0.162 HD
BRANCH  86  88
ATOM     88  CD  ROC d           3.562   8.648  14.153  0.00  0.00     0.021 C 
BRANCH  88  89
ATOM     89  C11 ROC d           2.597   7.721  14.812  0.00  0.00    -0.054 C 
ATOM     90  H43 ROC d           3.038   6.715  14.872  0.00  0.00     0.030 H 
ATOM     91  H44 ROC d           1.668   7.680  14.223  0.00  0.00     0.030 H 
ATOM     92  H45 ROC d           2.372   8.084  15.825  0.00  0.00     0.030 H 
ENDBRANCH  88  89
BRANCH  88  93
ATOM     93  C22 ROC d           3.076  10.065  14.279  0.00  0.00    -0.054 C 
ATOM     94  H46 ROC d           2.763  10.435  13.291  0.00  0.00     0.030 H 
ATOM     95  H47 ROC d           3.887  10.698  14.667  0.00  0.00     0.030 H 
ATOM     96  H48 ROC d           2.221  10.099  14.970  0.00  0.00     0.030 H 
ENDBRANCH  88  93
BRANCH  88  97
ATOM     97  C32 ROC d           4.918   8.521  14.820  0.00  0.00    -0.054 C 
ATOM     98  H49 ROC d           5.303   7.500  14.677  0.00  0.00     0.030 H 
ATOM     99  H50 ROC d           4.820   8.729  15.895  0.00  0.00     0.030 H 
ATOM    100  H51 ROC d           5.618   9.242  14.370  0.00  0.00     0.030 H 
ENDBRANCH  88  97
ENDBRANCH  86  88
ENDBRANCH  59  84
ENDBRANCH  55  58
ENDBRANCH   1  55
TORSDOF 17
ENDMDL
MODEL 2
REMARK VINA RESULT:      -8.3      2.627      8.722
REMARK  17 active torsions:
REMARK  status: ('A' for Active; 'I' for Inactive)
REMARK    1  A    between atoms: C_1  and  C2_4 
REMARK    2  A    between atoms: CA_14  and  N_13 
REMARK    3  A    between atoms: C1_15  and  CA_14 
REMARK    4  A    between atoms: CA_14  and  CB_17 
REMARK       I    between atoms: N2_24  and  C1_15 
REMARK    5  A    between atoms: CB_17  and  CG_18 
REMARK    6  A    between atoms: C9_21  and  O2_22 
REMARK    7  A    between atoms: CA1_23  and  C9_21 
REMARK    8  A    between atoms: C9_21  and  CM_33 
REMARK    9  A    between atoms: CA1_23  and  N2_24 
REMARK   10  A    between atoms: CA1_23  and  CB1_25 
REMARK   11  A    between atoms: CB1_25  and  CG1_26 
REMARK   12  A    between atoms: CM_33  and  N11_32 
REMARK   13  A    between atoms: C21_34  and  CC_35 
REMARK       I    between atoms: CC_35  and  N3_45 
REMARK   14  A    between atoms: N3_45  and  CD_46 
REMARK   15  A    between atoms: CD_46  and  C11_47 
REMARK   16  A    between atoms: CD_46  and  C22_48 
REMARK   17  A    between atoms: CD_46  and  C32_49 
ROOT
ATOM      1  C9  ROC d          -1.587   8.786   7.384  0.00  0.00     0.078 C 
ATOM      2  H13 ROC d          -1.248   8.688   6.343  0.00  0.00     0.088 H 
ENDROOT
BRANCH   1   3
ATOM      3  O2  ROC d          -2.629   9.713   7.467  0.00  0.00    -0.392 OA
ATOM      4  H14 ROC d          -2.640  10.246   6.681  0.00  0.00     0.210 HD
ENDBRANCH   1   3
BRANCH   1   5
ATOM      5  CA1 ROC d          -0.434   9.287   8.267  0.00  0.00     0.041 C 
ATOM      6  H15 ROC d          -0.876   9.993   8.985  0.00  0.00     0.076 H 
BRANCH   5   7
ATOM      7  N2  ROC d           0.121   8.163   9.055  0.00  0.00    -0.363 N 
ATOM      8  C1  ROC d           0.388   8.400  10.395  0.00  0.00     0.175 C 
ATOM      9  O1  ROC d           0.151   9.417  11.229  0.00  0.00    -0.175 OA
ATOM     10  H16 ROC d           0.295   7.271   8.639  0.00  0.00     0.162 HD
BRANCH   8  11
ATOM     11  CA  ROC d           1.103   7.218  11.053  0.00  0.00     0.083 C 
ATOM     12  H8  ROC d           1.422   7.549  12.052  0.00  0.00     0.086 H 
BRANCH  11  13
ATOM     13  N   ROC d           0.187   6.118  11.228  0.00  0.00    -0.354 N 
ATOM     14  C   ROC d           0.006   5.321  10.143  0.00  0.00     0.204 C 
ATOM     15  O   ROC d           0.555   5.216   8.937  0.00  0.00    -0.170 OA
ATOM     16  H7  ROC d          -0.284   5.952  12.095  0.00  0.00     0.162 HD
BRANCH  14  17
ATOM     17  C2  ROC d          -1.142   4.335  10.382  0.00  0.00     0.111 A 
ATOM     18  N1  ROC d          -0.858   2.995  10.444  0.00  0.00    -0.244 NA
ATOM     19  C8A ROC d          -1.868   2.068  10.643  0.00  0.00     0.068 A 
ATOM     20  C8  ROC d          -1.553   0.726  10.696  0.00  0.00    -0.054 A 
ATOM     21  C4A ROC d          -3.187   2.499  10.785  0.00  0.00    -0.007 A 
ATOM     22  C7  ROC d          -2.582  -0.224  10.895  0.00  0.00    -0.081 A 
ATOM     23  H6  ROC d          -0.524   0.403  10.586  0.00  0.00     0.087 H 
ATOM     24  C6  ROC d          -3.888   0.199  11.039  0.00  0.00    -0.082 A 
ATOM     25  H5  ROC d          -2.346  -1.282  10.933  0.00  0.00     0.083 H 
ATOM     26  C5  ROC d          -4.202   1.551  10.986  0.00  0.00    -0.071 A 
ATOM     27  H4  ROC d          -4.675  -0.530  11.196  0.00  0.00     0.083 H 
ATOM     28  H3  ROC d          -5.230   1.874  11.100  0.00  0.00     0.084 H 
ATOM     29  C4  ROC d          -3.481   3.852  10.727  0.00  0.00    -0.068 A 
ATOM     30  C3  ROC d          -2.464   4.775  10.523  0.00  0.00    -0.050 A 
ATOM     31  H2  ROC d          -4.504   4.189  10.842  0.00  0.00     0.085 H 
ATOM     32  H1  ROC d          -2.693   5.833  10.473  0.00  0.00     0.087 H 
ENDBRANCH  14  17
ENDBRANCH  11  13
BRANCH  11  33
ATOM     33  CB  ROC d           2.365   6.759  10.309  0.00  0.00     0.023 C 
ATOM     34  H9  ROC d           2.087   6.464   9.286  0.00  0.00     0.049 H 
ATOM     35  H10 ROC d           2.793   5.893  10.836  0.00  0.00     0.049 H 
BRANCH  33  36
ATOM     36  CG  ROC d           3.433   7.875  10.234  0.00  0.00     0.151 C 
ATOM     37  OD1 ROC d           4.122   7.868   9.065  0.00  0.00    -0.178 OA
ATOM     38  ND2 ROC d           3.428   8.607  11.385  0.00  0.00    -0.381 N 
ATOM     39  H11 ROC d           4.064   9.371  11.494  0.00  0.00     0.158 HD
ATOM     40  H12 ROC d           2.788   8.380  12.119  0.00  0.00     0.158 HD
ENDBRANCH  33  36
ENDBRANCH  11  33
ENDBRANCH   8  11
ENDBRANCH   5   7
BRANCH   5  41
ATOM     41  CB1 ROC d           0.647  10.067   7.524  0.00  0.00    -0.020 C 
ATOM     42  H17 ROC d           0.193  10.575   6.659  0.00  0.00     0.043 H 
ATOM     43  H18 ROC d           1.419   9.366   7.174  0.00  0.00     0.043 H 
BRANCH  41  44
ATOM     44  CG1 ROC d           1.302  11.124   8.440  0.00  0.00    -0.056 A 
ATOM     45  CD1 ROC d           2.662  11.117   8.687  0.00  0.00    -0.077 A 
ATOM     46  CE1 ROC d           3.237  12.091   9.535  0.00  0.00    -0.082 A 
ATOM     47  H19 ROC d           3.291  10.362   8.228  0.00  0.00     0.084 H 
ATOM     48  CZ  ROC d           2.438  13.063  10.126  0.00  0.00    -0.083 A 
ATOM     49  H21 ROC d           4.303  12.080   9.726  0.00  0.00     0.083 H 
ATOM     50  CE2 ROC d           1.078  13.073   9.884  0.00  0.00    -0.082 A 
ATOM     51  H23 ROC d           2.881  13.811  10.774  0.00  0.00     0.083 H 
ATOM     52  CD2 ROC d           0.506  12.100   9.041  0.00  0.00    -0.077 A 
ATOM     53  H22 ROC d           0.451  13.828  10.342  0.00  0.00     0.083 H 
ATOM     54  H20 ROC d          -0.562  12.110   8.857  0.00  0.00     0.084 H 
ENDBRANCH  41  44
ENDBRANCH   5  41
ENDBRANCH   1   5
BRANCH   1  55
ATOM     55  CM  ROC d          -2.078   7.460   7.887  0.00  0.00     0.110 C 
ATOM     56  H25 ROC d          -2.957   7.636   8.524  0.00  0.00     0.080 H 
ATOM     57  H26 ROC d          -1.277   7.001   8.486  0.00  0.00     0.080 H 
BRANCH  55  58
ATOM     58  N11 ROC d          -2.461   6.509   6.819  0.00  0.00    -0.057 N 
ATOM     59  C21 ROC d          -3.458   7.059   5.856  0.00  0.00     0.167 C 
ATOM     60  C31 ROC d          -3.834   5.988   4.848  0.00  0.00    -0.027 C 
ATOM     61  H27 ROC d          -2.943   7.862   5.309  0.00  0.00     0.098 H 
ATOM     62  C3A ROC d          -4.248   4.648   5.404  0.00  0.00    -0.047 C 
ATOM     63  H28 ROC d          -2.962   5.823   4.197  0.00  0.00     0.037 H 
ATOM     64  H29 ROC d          -4.672   6.374   4.249  0.00  0.00     0.037 H 
ATOM     65  C41 ROC d          -5.681   4.696   5.974  0.00  0.00    -0.061 C 
ATOM     66  C7A ROC d          -3.240   4.160   6.400  0.00  0.00    -0.027 C 
ATOM     67  H30 ROC d          -4.256   3.931   4.570  0.00  0.00     0.040 H 
ATOM     68  C51 ROC d          -6.117   3.417   6.575  0.00  0.00    -0.065 C 
ATOM     69  H31 ROC d          -6.373   4.951   5.158  0.00  0.00     0.033 H 
ATOM     70  H32 ROC d          -5.723   5.477   6.748  0.00  0.00     0.033 H 
ATOM     71  C61 ROC d          -5.126   2.932   7.620  0.00  0.00    -0.065 C 
ATOM     72  H33 ROC d          -6.201   2.659   5.782  0.00  0.00     0.033 H 
ATOM     73  H34 ROC d          -7.098   3.561   7.051  0.00  0.00     0.033 H 
ATOM     74  C71 ROC d          -3.689   2.893   7.092  0.00  0.00    -0.060 C 
ATOM     75  H35 ROC d          -5.414   1.919   7.935  0.00  0.00     0.033 H 
ATOM     76  H36 ROC d          -5.165   3.610   8.485  0.00  0.00     0.033 H 
ATOM     77  H37 ROC d          -3.609   2.063   6.374  0.00  0.00     0.033 H 
ATOM     78  H38 ROC d          -3.016   2.710   7.942  0.00  0.00     0.033 H 
ATOM     79  C81 ROC d          -2.892   5.246   7.435  0.00  0.00     0.088 C 
ATOM     80  H39 ROC d          -2.320   3.924   5.844  0.00  0.00     0.043 H 
ATOM     81  H40 ROC d          -3.784   5.442   8.050  0.00  0.00     0.076 H 
ATOM     82  H41 ROC d          -2.080   4.873   8.075  0.00  0.00     0.076 H 
ATOM     83  H24 ROC d          -1.629   6.312   6.285  0.00  0.00     0.281 HD
BRANCH  59  84
ATOM     84  CC  ROC d          -4.713   7.688   6.444  0.00  0.00     0.183 C 
ATOM     85  O3  ROC d          -4.868   7.585   7.748  0.00  0.00    -0.175 OA
ATOM     86  N3  ROC d          -5.498   8.285   5.460  0.00  0.00    -0.362 N 
ATOM     87  H42 ROC d          -5.170   8.306   4.516  0.00  0.00     0.162 HD
BRANCH  86  88
ATOM     88  CD  ROC d          -6.828   8.898   5.793  0.00  0.00     0.021 C 
BRANCH  88  89
ATOM     89  C11 ROC d          -7.326   9.510   4.527  0.00  0.00    -0.054 C 
ATOM     90  H43 ROC d          -6.541   9.453   3.759  0.00  0.00     0.030 H 
ATOM     91  H44 ROC d          -7.588  10.563   4.707  0.00  0.00     0.030 H 
ATOM     92  H45 ROC d          -8.216   8.965   4.181  0.00  0.00     0.030 H 
ENDBRANCH  88  89
BRANCH  88  93
ATOM     93  C22 ROC d          -6.685   9.957   6.850  0.00  0.00    -0.054 C 
ATOM     94  H46 ROC d          -5.718   9.837   7.361  0.00  0.00     0.030 H 
ATOM     95  H47 ROC d          -7.501   9.859   7.580  0.00  0.00     0.030 H 
ATOM     96  H48 ROC d          -6.730  10.951   6.382  0.00  0.00     0.030 H 
ENDBRANCH  88  93
BRANCH  88  97
ATOM     97  C32 ROC d          -7.813   7.846   6.265  0.00  0.00    -0.054 C 
ATOM     98  H49 ROC d          -7.494   7.458   7.244  0.00  0.00     0.030 H 
ATOM     99  H50 ROC d          -7.847   7.022   5.538  0.00  0.00     0.030 H 
ATOM    100  H51 ROC d          -8.814   8.295   6.357  0.00  0.00     0.030 H 
ENDBRANCH  88  97
ENDBRANCH  86  88
ENDBRANCH  59  84
ENDBRANCH  55  58
ENDBRANCH   1  55
TORSDOF 17
ENDMDL
MODEL 3
REMARK VINA RESULT:      -8.1      2.632      7.676
REMARK  17 active torsions:
REMARK  status: ('A' for Active; 'I' for Inactive)
REMARK    1  A    between atoms: C_1  and  C2_4 
REMARK    2  A    between atoms: CA_14  and  N_13 
REMARK    3  A    between atoms: C1_15  and  CA_14 
REMARK    4  A    between atoms: CA_14  and  CB_17 
REMARK       I    between atoms: N2_24  and  C1_15 
REMARK    5  A    between atoms: CB_17  and  CG_18 
REMARK    6  A    between atoms: C9_21  and  O2_22 
REMARK    7  A    between atoms: CA1_23  and  C9_21 
REMARK    8  A    between atoms: C9_21  and  CM_33 
REMARK    9  A    between atoms: CA1_23  and  N2_24 
REMARK   10  A    between atoms: CA1_23  and  CB1_25 
REMARK   11  A    between atoms: CB1_25  and  CG1_26 
REMARK   12  A    between atoms: CM_33  and  N11_32 
REMARK   13  A    between atoms: C21_34  and  CC_35 
REMARK       I    between atoms: CC_35  and  N3_45 
REMARK   14  A    between atoms: N3_45  and  CD_46 
REMARK   15  A    between atoms: CD_46  and  C11_47 
REMARK   16  A    between atoms: CD_46  and  C22_48 
REMARK   17  A    between atoms: CD_46  and  C32_49 
ROOT
ATOM      1  C9  ROC d          -1.154   6.326   8.154  0.00  0.00     0.078 C 
ATOM      2  H13 ROC d          -0.620   5.771   7.369  0.00  0.00     0.088 H 
ENDROOT
BRANCH   1   3
ATOM      3  O2  ROC d          -0.945   7.699   8.002  0.00  0.00    -0.392 OA
ATOM      4  H14 ROC d          -1.603   8.055   7.417  0.00  0.00     0.210 HD
ENDBRANCH   1   3
BRANCH   1   5
ATOM      5  CA1 ROC d          -0.627   5.915   9.537  0.00  0.00     0.041 C 
ATOM      6  H15 ROC d          -1.119   6.576  10.267  0.00  0.00     0.076 H 
BRANCH   5   7
ATOM      7  N2  ROC d          -1.058   4.534   9.850  0.00  0.00    -0.363 N 
ATOM      8  C1  ROC d          -2.278   4.380  10.492  0.00  0.00     0.175 C 
ATOM      9  O1  ROC d          -3.272   5.212  10.818  0.00  0.00    -0.175 OA
ATOM     10  H16 ROC d          -0.494   3.745   9.609  0.00  0.00     0.162 HD
BRANCH   8  11
ATOM     11  CA  ROC d          -2.530   2.927  10.900  0.00  0.00     0.083 C 
ATOM     12  H8  ROC d          -2.866   2.940  11.948  0.00  0.00     0.086 H 
BRANCH  11  13
ATOM     13  N   ROC d          -3.595   2.366  10.107  0.00  0.00    -0.354 N 
ATOM     14  C   ROC d          -4.708   1.992  10.790  0.00  0.00     0.204 C 
ATOM     15  O   ROC d          -5.141   2.110  12.041  0.00  0.00    -0.170 OA
ATOM     16  H7  ROC d          -3.519   2.259   9.115  0.00  0.00     0.162 HD
BRANCH  14  17
ATOM     17  C2  ROC d          -5.666   1.216   9.881  0.00  0.00     0.111 A 
ATOM     18  N1  ROC d          -5.140   0.371   8.937  0.00  0.00    -0.244 NA
ATOM     19  C8A ROC d          -5.970  -0.339   8.084  0.00  0.00     0.068 A 
ATOM     20  C8  ROC d          -5.411  -1.177   7.142  0.00  0.00    -0.054 A 
ATOM     21  C4A ROC d          -7.353  -0.197   8.185  0.00  0.00    -0.007 A 
ATOM     22  C7  ROC d          -6.255  -1.900   6.266  0.00  0.00    -0.081 A 
ATOM     23  H6  ROC d          -4.335  -1.281   7.074  0.00  0.00     0.087 H 
ATOM     24  C6  ROC d          -7.625  -1.765   6.366  0.00  0.00    -0.082 A 
ATOM     25  H5  ROC d          -5.827  -2.559   5.519  0.00  0.00     0.083 H 
ATOM     26  C5  ROC d          -8.184  -0.920   7.316  0.00  0.00    -0.071 A 
ATOM     27  H4  ROC d          -8.270  -2.323   5.697  0.00  0.00     0.083 H 
ATOM     28  H3  ROC d          -9.261  -0.819   7.386  0.00  0.00     0.084 H 
ATOM     29  C4  ROC d          -7.892   0.652   9.139  0.00  0.00    -0.068 A 
ATOM     30  C3  ROC d          -7.055   1.364   9.987  0.00  0.00    -0.050 A 
ATOM     31  H2  ROC d          -8.967   0.761   9.222  0.00  0.00     0.085 H 
ATOM     32  H1  ROC d          -7.475   2.032  10.730  0.00  0.00     0.087 H 
ENDBRANCH  14  17
ENDBRANCH  11  13
BRANCH  11  33
ATOM     33  CB  ROC d          -1.282   2.036  10.840  0.00  0.00     0.023 C 
ATOM     34  H9  ROC d          -0.797   2.037  11.828  0.00  0.00     0.049 H 
ATOM     35  H10 ROC d          -0.588   2.446  10.092  0.00  0.00     0.049 H 
BRANCH  33  36
ATOM     36  CG  ROC d          -1.627   0.578  10.455  0.00  0.00     0.151 C 
ATOM     37  OD1 ROC d          -2.323  -0.072  11.421  0.00  0.00    -0.178 OA
ATOM     38  ND2 ROC d          -1.134   0.292   9.216  0.00  0.00    -0.381 N 
ATOM     39  H11 ROC d          -1.274  -0.615   8.820  0.00  0.00     0.158 HD
ATOM     40  H12 ROC d          -0.633   0.989   8.704  0.00  0.00     0.158 HD
ENDBRANCH  33  36
ENDBRANCH  11  33
ENDBRANCH   8  11
ENDBRANCH   5   7
BRANCH   5  41
ATOM     41  CB1 ROC d           0.873   6.116   9.734  0.00  0.00    -0.020 C 
ATOM     42  H17 ROC d           1.274   6.688   8.884  0.00  0.00     0.043 H 
ATOM     43  H18 ROC d           1.364   5.133   9.780  0.00  0.00     0.043 H 
BRANCH  41  44
ATOM     44  CG1 ROC d           1.166   6.887  11.041  0.00  0.00    -0.056 A 
ATOM     45  CD1 ROC d           0.619   8.134  11.278  0.00  0.00    -0.077 A 
ATOM     46  CE1 ROC d           0.909   8.822  12.479  0.00  0.00    -0.082 A 
ATOM     47  H19 ROC d          -0.034   8.587  10.540  0.00  0.00     0.084 H 
ATOM     48  CZ  ROC d           1.743   8.248  13.430  0.00  0.00    -0.083 A 
ATOM     49  H21 ROC d           0.478   9.800  12.658  0.00  0.00     0.083 H 
ATOM     50  CE2 ROC d           2.293   7.002  13.197  0.00  0.00    -0.082 A 
ATOM     51  H23 ROC d           1.962   8.775  14.352  0.00  0.00     0.083 H 
ATOM     52  CD2 ROC d           2.007   6.319  11.999  0.00  0.00    -0.077 A 
ATOM     53  H22 ROC d           2.945   6.550  13.935  0.00  0.00     0.083 H 
ATOM     54  H20 ROC d           2.444   5.343  11.819  0.00  0.00     0.084 H 
ENDBRANCH  41  44
ENDBRANCH   5  41
ENDBRANCH   1   5
BRANCH   1  55
ATOM     55  CM  ROC d          -2.626   6.047   8.065  0.00  0.00     0.110 C 
ATOM     56  H25 ROC d          -3.166   6.996   8.203  0.00  0.00     0.080 H 
ATOM     57  H26 ROC d          -2.895   5.350   8.872  0.00  0.00     0.080 H 
BRANCH  55  58
ATOM     58  N11 ROC d          -3.054   5.453   6.778  0.00  0.00    -0.057 N 
ATOM     59  C21 ROC d          -3.578   6.451   5.802  0.00  0.00     0.167 C 
ATOM     60  C31 ROC d          -4.052   5.735   4.549  0.00  0.00    -0.027 C 
ATOM     61  H27 ROC d          -2.721   7.080   5.519  0.00  0.00     0.098 H 
ATOM     62  C3A ROC d          -4.994   4.574   4.747  0.00  0.00    -0.047 C 
ATOM     63  H28 ROC d          -3.162   5.357   4.025  0.00  0.00     0.037 H 
ATOM     64  H29 ROC d          -4.563   6.475   3.916  0.00  0.00     0.037 H 
ATOM     65  C41 ROC d          -6.420   5.059   5.080  0.00  0.00    -0.061 C 
ATOM     66  C7A ROC d          -4.448   3.624   5.769  0.00  0.00    -0.027 C 
ATOM     67  H30 ROC d          -5.053   4.027   3.794  0.00  0.00     0.040 H 
ATOM     68  C51 ROC d          -7.372   3.955   5.330  0.00  0.00    -0.065 C 
ATOM     69  H31 ROC d          -6.793   5.654   4.234  0.00  0.00     0.033 H 
ATOM     70  H32 ROC d          -6.373   5.689   5.980  0.00  0.00     0.033 H 
ATOM     71  C61 ROC d          -6.851   3.008   6.398  0.00  0.00    -0.065 C 
ATOM     72  H33 ROC d          -7.523   3.393   4.397  0.00  0.00     0.033 H 
ATOM     73  H34 ROC d          -8.331   4.377   5.663  0.00  0.00     0.033 H 
ATOM     74  C71 ROC d          -5.427   2.524   6.108  0.00  0.00    -0.060 C 
ATOM     75  H35 ROC d          -7.517   2.134   6.451  0.00  0.00     0.033 H 
ATOM     76  H36 ROC d          -6.855   3.530   7.366  0.00  0.00     0.033 H 
ATOM     77  H37 ROC d          -5.467   1.826   5.258  0.00  0.00     0.033 H 
ATOM     78  H38 ROC d          -5.056   1.996   6.999  0.00  0.00     0.033 H 
ATOM     79  C81 ROC d          -4.000   4.361   7.046  0.00  0.00     0.088 C 
ATOM     80  H39 ROC d          -3.557   3.149   5.331  0.00  0.00     0.043 H 
ATOM     81  H40 ROC d          -4.890   4.780   7.539  0.00  0.00     0.076 H 
ATOM     82  H41 ROC d          -3.517   3.635   7.718  0.00  0.00     0.076 H 
ATOM     83  H24 ROC d          -2.237   5.043   6.354  0.00  0.00     0.281 HD
BRANCH  59  84
ATOM     84  CC  ROC d          -4.654   7.405   6.298  0.00  0.00     0.183 C 
ATOM     85  O3  ROC d          -5.303   7.047   7.388  0.00  0.00    -0.175 OA
ATOM     86  N3  ROC d          -4.762   8.529   5.482  0.00  0.00    -0.362 N 
ATOM     87  H42 ROC d          -4.126   8.644   4.719  0.00  0.00     0.162 HD
BRANCH  86  88
ATOM     88  CD  ROC d          -5.815   9.571   5.728  0.00  0.00     0.021 C 
BRANCH  88  89
ATOM     89  C11 ROC d          -5.618  10.610   4.676  0.00  0.00    -0.054 C 
ATOM     90  H43 ROC d          -6.077  11.554   5.003  0.00  0.00     0.030 H 
ATOM     91  H44 ROC d          -6.090  10.277   3.740  0.00  0.00     0.030 H 
ATOM     92  H45 ROC d          -4.542  10.763   4.509  0.00  0.00     0.030 H 
ENDBRANCH  88  89
BRANCH  88  93
ATOM     93  C22 ROC d          -5.657  10.187   7.090  0.00  0.00    -0.054 C 
ATOM     94  H46 ROC d          -6.556  10.771   7.335  0.00  0.00     0.030 H 
ATOM     95  H47 ROC d          -4.777  10.847   7.093  0.00  0.00     0.030 H 
ATOM     96  H48 ROC d          -5.521   9.393   7.838  0.00  0.00     0.030 H 
ENDBRANCH  88  93
BRANCH  88  97
ATOM     97  C32 ROC d          -7.207   8.982   5.601  0.00  0.00    -0.054 C 
ATOM     98  H49 ROC d          -7.901   9.755   5.239  0.00  0.00     0.030 H 
ATOM     99  H50 ROC d          -7.544   8.620   6.584  0.00  0.00     0.030 H 
ATOM    100  H51 ROC d          -7.188   8.143   4.889  0.00  0.00     0.030 H 
ENDBRANCH  88  97
ENDBRANCH  86  88
ENDBRANCH  59  84
ENDBRANCH  55  58
ENDBRANCH   1  55
TORSDOF 17
ENDMDL
MODEL 4
REMARK VINA RESULT:      -7.9      2.507      5.752
REMARK  17 active torsions:
REMARK  status: ('A' for Active; 'I' for Inactive)
REMARK    1  A    between atoms: C_1  and  C2_4 
REMARK    2  A    between atoms: CA_14  and  N_13 
REMARK    3  A    between atoms: C1_15  and  CA_14 
REMARK    4  A    between atoms: CA_14  and  CB_17 
REMARK       I    between atoms: N2_24  and  C1_15 
REMARK    5  A    between atoms: CB_17  and  CG_18 
REMARK    6  A    between atoms: C9_21  and  O2_22 
REMARK    7  A    between atoms: CA1_23  and  C9_21 
REMARK    8  A    between atoms: C9_21  and  CM_33 
REMARK    9  A    between atoms: CA1_23  and  N2_24 
REMARK   10  A    between atoms: CA1_23  and  CB1_25 
REMARK   11  A    between atoms: CB1_25  and  CG1_26 
REMARK   12  A    between atoms: CM_33  and  N11_32 
REMARK   13  A    between atoms: C21_34  and  CC_35 
REMARK       I    between atoms: CC_35  and  N3_45 
REMARK   14  A    between atoms: N3_45  and  CD_46 
REMARK   15  A    between atoms: CD_46  and  C11_47 
REMARK   16  A    between atoms: CD_46  and  C22_48 
REMARK   17  A    between atoms: CD_46  and  C32_49 
ROOT
ATOM      1  C9  ROC d          -1.158   5.250   8.953  0.00  0.00     0.078 C 
ATOM      2  H13 ROC d          -1.983   4.577   8.677  0.00  0.00     0.088 H 
ENDROOT
BRANCH   1   3
ATOM      3  O2  ROC d          -0.081   5.076   8.080  0.00  0.00    -0.392 OA
ATOM      4  H14 ROC d           0.001   5.843   7.525  0.00  0.00     0.210 HD
ENDBRANCH   1   3
BRANCH   1   5
ATOM      5  CA1 ROC d          -0.673   4.931  10.375  0.00  0.00     0.041 C 
ATOM      6  H15 ROC d          -1.084   5.716  11.027  0.00  0.00     0.076 H 
BRANCH   5   7
ATOM      7  N2  ROC d          -1.255   3.647  10.829  0.00  0.00    -0.363 N 
ATOM      8  C1  ROC d          -2.638   3.546  10.840  0.00  0.00     0.175 C 
ATOM      9  O1  ROC d          -3.634   4.327  10.410  0.00  0.00    -0.175 OA
ATOM     10  H16 ROC d          -0.675   2.885  11.116  0.00  0.00     0.162 HD
BRANCH   8  11
ATOM     11  CA  ROC d          -3.111   2.239  11.477  0.00  0.00     0.083 C 
ATOM     12  H8  ROC d          -3.663   2.506  12.391  0.00  0.00     0.086 H 
BRANCH  11  13
ATOM     13  N   ROC d          -4.027   1.558  10.596  0.00  0.00    -0.354 N 
ATOM     14  C   ROC d          -5.259   1.301  11.108  0.00  0.00     0.204 C 
ATOM     15  O   ROC d          -5.913   1.618  12.220  0.00  0.00    -0.170 OA
ATOM     16  H7  ROC d          -3.772   1.293   9.666  0.00  0.00     0.162 HD
BRANCH  14  17
ATOM     17  C2  ROC d          -6.055   0.390  10.168  0.00  0.00     0.111 A 
ATOM     18  N1  ROC d          -5.643   0.264   8.866  0.00  0.00    -0.244 NA
ATOM     19  C8A ROC d          -6.343  -0.537   7.978  0.00  0.00     0.068 A 
ATOM     20  C8  ROC d          -5.907  -0.640   6.673  0.00  0.00    -0.054 A 
ATOM     21  C4A ROC d          -7.475  -1.226   8.411  0.00  0.00    -0.007 A 
ATOM     22  C7  ROC d          -6.622  -1.454   5.763  0.00  0.00    -0.081 A 
ATOM     23  H6  ROC d          -5.025  -0.101   6.349  0.00  0.00     0.087 H 
ATOM     24  C6  ROC d          -7.741  -2.140   6.188  0.00  0.00    -0.082 A 
ATOM     25  H5  ROC d          -6.291  -1.538   4.733  0.00  0.00     0.083 H 
ATOM     26  C5  ROC d          -8.177  -2.035   7.504  0.00  0.00    -0.071 A 
ATOM     27  H4  ROC d          -8.285  -2.767   5.490  0.00  0.00     0.083 H 
ATOM     28  H3  ROC d          -9.057  -2.577   7.828  0.00  0.00     0.084 H 
ATOM     29  C4  ROC d          -7.895  -1.108   9.726  0.00  0.00    -0.068 A 
ATOM     30  C3  ROC d          -7.192  -0.299  10.609  0.00  0.00    -0.050 A 
ATOM     31  H2  ROC d          -8.772  -1.646  10.066  0.00  0.00     0.085 H 
ATOM     32  H1  ROC d          -7.522  -0.201  11.637  0.00  0.00     0.087 H 
ENDBRANCH  14  17
ENDBRANCH  11  13
BRANCH  11  33
ATOM     33  CB  ROC d          -1.971   1.302  11.901  0.00  0.00     0.023 C 
ATOM     34  H9  ROC d          -2.207   0.880  12.890  0.00  0.00     0.049 H 
ATOM     35  H10 ROC d          -1.038   1.883  11.964  0.00  0.00     0.049 H 
BRANCH  33  36
ATOM     36  CG  ROC d          -1.769   0.142  10.899  0.00  0.00     0.151 C 
ATOM     37  OD1 ROC d          -2.584  -0.915  11.144  0.00  0.00    -0.178 OA
ATOM     38  ND2 ROC d          -0.798   0.465   9.997  0.00  0.00    -0.381 N 
ATOM     39  H11 ROC d          -0.548  -0.183   9.278  0.00  0.00     0.158 HD
ATOM     40  H12 ROC d          -0.337   1.351  10.054  0.00  0.00     0.158 HD
ENDBRANCH  33  36
ENDBRANCH  11  33
ENDBRANCH   8  11
ENDBRANCH   5   7
BRANCH   5  41
ATOM     41  CB1 ROC d           0.841   4.983  10.560  0.00  0.00    -0.020 C 
ATOM     42  H17 ROC d           1.319   5.119   9.578  0.00  0.00     0.043 H 
ATOM     43  H18 ROC d           1.181   4.036  11.006  0.00  0.00     0.043 H 
BRANCH  41  44
ATOM     44  CG1 ROC d           1.251   6.150  11.485  0.00  0.00    -0.056 A 
ATOM     45  CD1 ROC d           2.341   6.051  12.328  0.00  0.00    -0.077 A 
ATOM     46  CE1 ROC d           2.691   7.131  13.170  0.00  0.00    -0.082 A 
ATOM     47  H19 ROC d           2.931   5.141  12.344  0.00  0.00     0.084 H 
ATOM     48  CZ  ROC d           1.941   8.302  13.154  0.00  0.00    -0.083 A 
ATOM     49  H21 ROC d           3.546   7.047  13.830  0.00  0.00     0.083 H 
ATOM     50  CE2 ROC d           0.849   8.405  12.314  0.00  0.00    -0.082 A 
ATOM     51  H23 ROC d           2.213   9.131  13.798  0.00  0.00     0.083 H 
ATOM     52  CD2 ROC d           0.500   7.327  11.478  0.00  0.00    -0.077 A 
ATOM     53  H22 ROC d           0.262   9.315  12.298  0.00  0.00     0.083 H 
ATOM     54  H20 ROC d          -0.360   7.412  10.824  0.00  0.00     0.084 H 
ENDBRANCH  41  44
ENDBRANCH   5  41
ENDBRANCH   1   5
BRANCH   1  55
ATOM     55  CM  ROC d          -1.618   6.676   8.877  0.00  0.00     0.110 C 
ATOM     56  H25 ROC d          -0.766   7.328   9.122  0.00  0.00     0.080 H 
ATOM     57  H26 ROC d          -2.416   6.821   9.620  0.00  0.00     0.080 H 
BRANCH  55  58
ATOM     58  N11 ROC d          -2.140   7.077   7.551  0.00  0.00    -0.057 N 
ATOM     59  C21 ROC d          -1.333   8.139   6.884  0.00  0.00     0.167 C 
ATOM     60  C31 ROC d          -1.988   8.524   5.569  0.00  0.00    -0.027 C 
ATOM     61  H27 ROC d          -0.361   7.680   6.648  0.00  0.00     0.098 H 
ATOM     62  C3A ROC d          -3.457   8.862   5.617  0.00  0.00    -0.047 C 
ATOM     63  H28 ROC d          -1.862   7.680   4.875  0.00  0.00     0.037 H 
ATOM     64  H29 ROC d          -1.456   9.404   5.178  0.00  0.00     0.037 H 
ATOM     65  C41 ROC d          -3.691  10.266   6.212  0.00  0.00    -0.061 C 
ATOM     66  C7A ROC d          -4.219   7.790   6.336  0.00  0.00    -0.027 C 
ATOM     67  H30 ROC d          -3.827   8.885   4.581  0.00  0.00     0.040 H 
ATOM     68  C51 ROC d          -5.121  10.625   6.324  0.00  0.00    -0.065 C 
ATOM     69  H31 ROC d          -3.196  11.006   5.567  0.00  0.00     0.033 H 
ATOM     70  H32 ROC d          -3.244  10.298   7.217  0.00  0.00     0.033 H 
ATOM     71  C61 ROC d          -5.897   9.568   7.091  0.00  0.00    -0.065 C 
ATOM     72  H33 ROC d          -5.547  10.720   5.315  0.00  0.00     0.033 H 
ATOM     73  H34 ROC d          -5.209  11.586   6.852  0.00  0.00     0.033 H 
ATOM     74  C71 ROC d          -5.670   8.158   6.538  0.00  0.00    -0.060 C 
ATOM     75  H35 ROC d          -6.970   9.803   7.028  0.00  0.00     0.033 H 
ATOM     76  H36 ROC d          -5.579   9.589   8.143  0.00  0.00     0.033 H 
ATOM     77  H37 ROC d          -6.182   8.083   5.567  0.00  0.00     0.033 H 
ATOM     78  H38 ROC d          -6.112   7.438   7.242  0.00  0.00     0.033 H 
ATOM     79  C81 ROC d          -3.560   7.431   7.682  0.00  0.00     0.088 C 
ATOM     80  H39 ROC d          -4.191   6.890   5.703  0.00  0.00     0.043 H 
ATOM     81  H40 ROC d          -3.644   8.298   8.355  0.00  0.00     0.076 H 
ATOM     82  H41 ROC d          -4.096   6.576   8.117  0.00  0.00     0.076 H 
ATOM     83  H24 ROC d          -2.089   6.265   6.955  0.00  0.00     0.281 HD
BRANCH  59  84
ATOM     84  CC  ROC d          -1.022   9.385   7.699  0.00  0.00     0.183 C 
ATOM     85  O3  ROC d          -2.015  10.233   7.881  0.00  0.00    -0.175 OA
ATOM     86  N3  ROC d           0.304   9.405   8.125  0.00  0.00    -0.362 N 
ATOM     87  H42 ROC d           0.895   8.623   7.927  0.00  0.00     0.162 HD
BRANCH  86  88
ATOM     88  CD  ROC d           0.862  10.580   8.875  0.00  0.00     0.021 C 
BRANCH  88  89
ATOM     89  C11 ROC d           2.114  10.094   9.525  0.00  0.00    -0.054 C 
ATOM     90  H43 ROC d           2.856  10.905   9.544  0.00  0.00     0.030 H 
ATOM     91  H44 ROC d           2.516   9.242   8.956  0.00  0.00     0.030 H 
ATOM     92  H45 ROC d           1.893   9.775  10.554  0.00  0.00     0.030 H 
ENDBRANCH  88  89
BRANCH  88  93
ATOM     93  C22 ROC d          -0.103  11.059   9.922  0.00  0.00    -0.054 C 
ATOM     94  H46 ROC d          -1.115  11.108   9.494  0.00  0.00     0.030 H 
ATOM     95  H47 ROC d           0.197  12.059  10.268  0.00  0.00     0.030 H 
ATOM     96  H48 ROC d          -0.099  10.361  10.773  0.00  0.00     0.030 H 
ENDBRANCH  88  93
BRANCH  88  97
ATOM     97  C32 ROC d           1.193  11.723   7.935  0.00  0.00    -0.054 C 
ATOM     98  H49 ROC d           2.188  12.124   8.181  0.00  0.00     0.030 H 
ATOM     99  H50 ROC d           0.441  12.518   8.045  0.00  0.00     0.030 H 
ATOM    100  H51 ROC d           1.191  11.357   6.897  0.00  0.00     0.030 H 
ENDBRANCH  88  97
ENDBRANCH  86  88
ENDBRANCH  59  84
ENDBRANCH  55  58
ENDBRANCH   1  55
TORSDOF 17
ENDMDL
