MODEL 1
REMARK VINA RESULT:      -6.1      0.000      0.000
REMARK  8 active torsions:
REMARK  status: ('A' for Active; 'I' for Inactive)
REMARK    1  A    between atoms: C1_1  and  O7_7 
REMARK    2  A    between atoms: C2_2  and  O16_14 
REMARK    3  A    between atoms: C14_12  and  C4_4 
REMARK    4  A    between atoms: C10_9  and  C9_8 
REMARK    5  A    between atoms: N3_15  and  C10_9 
REMARK    6  A    between atoms: C12_10  and  C13_11 
REMARK    7  A    between atoms: N3_15  and  C12_10 
REMARK       I    between atoms: C14_12  and  N3_15 
REMARK    8  A    between atoms: O16_14  and  C15_16 
ROOT
ATOM      1  C14 MOL d          64.647  35.451  24.192  0.00  0.00     0.253 C 
ATOM      2  O15 MOL d          64.231  34.968  23.164  0.00  0.00    -0.267 OA
ATOM      3  N3  MOL d          65.143  36.721  24.267  0.00  0.00    -0.349 N 
ENDROOT
BRANCH   1   4
ATOM      4  C4  MOL d          64.686  34.624  25.432  0.00  0.00     0.035 A 
ATOM      5  C3  MOL d          65.908  34.196  25.930  0.00  0.00    -0.033 A 
ATOM      6  C2  MOL d          65.988  33.413  27.059  0.00  0.00     0.102 A 
ATOM      7  H1  MOL d          66.819  34.485  25.418  0.00  0.00     0.089 H 
ATOM      8  C1  MOL d          64.818  33.058  27.736  0.00  0.00     0.099 A 
ATOM      9  C6  MOL d          63.576  33.487  27.243  0.00  0.00    -0.047 A 
ATOM     10  C5  MOL d          63.511  34.264  26.102  0.00  0.00    -0.065 A 
ATOM     11  H3  MOL d          62.664  33.207  27.759  0.00  0.00     0.087 H 
ATOM     12  H2  MOL d          62.550  34.596  25.726  0.00  0.00     0.085 H 
BRANCH   6  13
ATOM     13  O16 MOL d          67.171  32.969  27.592  0.00  0.00    -0.353 OA
BRANCH  13  14
ATOM     14  C15 MOL d          68.394  33.573  27.094  0.00  0.00     0.010 C 
ATOM     15  H15 MOL d          69.142  33.605  27.900  0.00  0.00     0.066 H 
ATOM     16  H16 MOL d          68.184  34.596  26.748  0.00  0.00     0.066 H 
ATOM     17  H17 MOL d          68.784  32.975  26.257  0.00  0.00     0.066 H 
ENDBRANCH  13  14
ENDBRANCH   6  13
BRANCH   8  18
ATOM     18  O7  MOL d          64.900  32.307  28.871  0.00  0.00    -0.358 OA
ATOM     19  H4  MOL d          65.177  31.427  28.647  0.00  0.00     0.217 HD
ENDBRANCH   8  18
ENDBRANCH   1   4
BRANCH   3  20
ATOM     20  C10 MOL d          65.268  37.415  25.565  0.00  0.00    -0.005 C 
ATOM     21  H8  MOL d          64.487  37.040  26.243  0.00  0.00     0.063 H 
ATOM     22  H9  MOL d          66.259  37.194  25.989  0.00  0.00     0.063 H 
BRANCH  20  23
ATOM     23  C9  MOL d          65.119  38.915  25.435  0.00  0.00    -0.061 C 
ATOM     24  H5  MOL d          65.754  39.276  24.612  0.00  0.00     0.029 H 
ATOM     25  H6  MOL d          65.427  39.397  26.374  0.00  0.00     0.029 H 
ATOM     26  H7  MOL d          64.069  39.162  25.223  0.00  0.00     0.029 H 
ENDBRANCH  20  23
ENDBRANCH   3  20
BRANCH   3  27
ATOM     27  C12 MOL d          65.375  37.537  23.076  0.00  0.00    -0.005 C 
ATOM     28  H10 MOL d          64.718  37.182  22.268  0.00  0.00     0.063 H 
ATOM     29  H11 MOL d          65.135  38.586  23.310  0.00  0.00     0.063 H 
BRANCH  27  30
ATOM     30  C13 MOL d          66.817  37.455  22.610  0.00  0.00    -0.061 C 
ATOM     31  H12 MOL d          67.304  36.587  23.077  0.00  0.00     0.029 H 
ATOM     32  H13 MOL d          67.349  38.374  22.899  0.00  0.00     0.029 H 
ATOM     33  H14 MOL d          66.843  37.345  21.516  0.00  0.00     0.029 H 
ENDBRANCH  27  30
ENDBRANCH   3  27
TORSDOF 8
ENDMDL
MODEL 2
REMARK VINA RESULT:      -5.6      0.881      2.248
REMARK  8 active torsions:
REMARK  status: ('A' for Active; 'I' for Inactive)
REMARK    1  A    between atoms: C1_1  and  O7_7 
REMARK    2  A    between atoms: C2_2  and  O16_14 
REMARK    3  A    between atoms: C14_12  and  C4_4 
REMARK    4  A    between atoms: C10_9  and  C9_8 
REMARK    5  A    between atoms: N3_15  and  C10_9 
REMARK    6  A    between atoms: C12_10  and  C13_11 
REMARK    7  A    between atoms: N3_15  and  C12_10 
REMARK       I    between atoms: C14_12  and  N3_15 
REMARK    8  A    between atoms: O16_14  and  C15_16 
ROOT
ATOM      1  C14 MOL d          64.648  35.365  24.276  0.00  0.00     0.253 C 
ATOM      2  O15 MOL d          63.845  34.950  23.471  0.00  0.00    -0.267 OA
ATOM      3  N3  MOL d          65.307  36.551  24.122  0.00  0.00    -0.349 N 
ENDROOT
BRANCH   1   4
ATOM      4  C4  MOL d          64.993  34.537  25.467  0.00  0.00     0.035 A 
ATOM      5  C3  MOL d          64.013  34.249  26.405  0.00  0.00    -0.033 A 
ATOM      6  C2  MOL d          64.293  33.507  27.530  0.00  0.00     0.102 A 
ATOM      7  H1  MOL d          63.005  34.616  26.249  0.00  0.00     0.089 H 
ATOM      8  C1  MOL d          65.586  33.010  27.724  0.00  0.00     0.099 A 
ATOM      9  C6  MOL d          66.585  33.293  26.781  0.00  0.00    -0.047 A 
ATOM     10  C5  MOL d          66.290  34.049  25.660  0.00  0.00    -0.065 A 
ATOM     11  H3  MOL d          67.591  32.918  26.930  0.00  0.00     0.087 H 
ATOM     12  H2  MOL d          67.064  34.263  24.933  0.00  0.00     0.085 H 
BRANCH   6  13
ATOM     13  O16 MOL d          63.359  33.192  28.483  0.00  0.00    -0.353 OA
BRANCH  13  14
ATOM     14  C15 MOL d          62.547  32.010  28.255  0.00  0.00     0.010 C 
ATOM     15  H15 MOL d          62.564  31.754  27.185  0.00  0.00     0.066 H 
ATOM     16  H16 MOL d          61.511  32.211  28.567  0.00  0.00     0.066 H 
ATOM     17  H17 MOL d          62.949  31.169  28.839  0.00  0.00     0.066 H 
ENDBRANCH  13  14
ENDBRANCH   6  13
BRANCH   8  18
ATOM     18  O7  MOL d          65.855  32.250  28.823  0.00  0.00    -0.358 OA
ATOM     19  H4  MOL d          65.987  31.348  28.558  0.00  0.00     0.217 HD
ENDBRANCH   8  18
ENDBRANCH   1   4
BRANCH   3  20
ATOM     20  C10 MOL d          65.959  37.216  25.268  0.00  0.00    -0.005 C 
ATOM     21  H8  MOL d          66.122  36.471  26.061  0.00  0.00     0.063 H 
ATOM     22  H9  MOL d          66.927  37.619  24.938  0.00  0.00     0.063 H 
BRANCH  20  23
ATOM     23  C9  MOL d          65.127  38.348  25.829  0.00  0.00    -0.061 C 
ATOM     24  H5  MOL d          65.453  38.569  26.856  0.00  0.00     0.029 H 
ATOM     25  H6  MOL d          64.067  38.055  25.836  0.00  0.00     0.029 H 
ATOM     26  H7  MOL d          65.255  39.242  25.202  0.00  0.00     0.029 H 
ENDBRANCH  20  23
ENDBRANCH   3  20
BRANCH   3  27
ATOM     27  C12 MOL d          65.228  37.329  22.886  0.00  0.00    -0.005 C 
ATOM     28  H10 MOL d          64.714  36.730  22.120  0.00  0.00     0.063 H 
ATOM     29  H11 MOL d          64.654  38.249  23.080  0.00  0.00     0.063 H 
BRANCH  27  30
ATOM     30  C13 MOL d          66.605  37.708  22.371  0.00  0.00    -0.061 C 
ATOM     31  H12 MOL d          67.018  36.876  21.783  0.00  0.00     0.029 H 
ATOM     32  H13 MOL d          67.269  37.921  23.222  0.00  0.00     0.029 H 
ATOM     33  H14 MOL d          66.526  38.602  21.735  0.00  0.00     0.029 H 
ENDBRANCH  27  30
ENDBRANCH   3  27
TORSDOF 8
ENDMDL
MODEL 3
REMARK VINA RESULT:      -5.6      2.428      5.240
REMARK  8 active torsions:
REMARK  status: ('A' for Active; 'I' for Inactive)
REMARK    1  A    between atoms: C1_1  and  O7_7 
REMARK    2  A    between atoms: C2_2  and  O16_14 
REMARK    3  A    between atoms: C14_12  and  C4_4 
REMARK    4  A    between atoms: C10_9  and  C9_8 
REMARK    5  A    between atoms: N3_15  and  C10_9 
REMARK    6  A    between atoms: C12_10  and  C13_11 
REMARK    7  A    between atoms: N3_15  and  C12_10 
REMARK       I    between atoms: C14_12  and  N3_15 
REMARK    8  A    between atoms: O16_14  and  C15_16 
ROOT
ATOM      1  C14 MOL d          64.791  33.968  26.133  0.00  0.00     0.253 C 
ATOM      2  O15 MOL d          63.659  33.579  26.308  0.00  0.00    -0.267 OA
ATOM      3  N3  MOL d          65.889  33.259  26.532  0.00  0.00    -0.349 N 
ENDROOT
BRANCH   1   4
ATOM      4  C4  MOL d          65.025  35.303  25.510  0.00  0.00     0.035 A 
ATOM      5  C3  MOL d          65.295  36.396  26.320  0.00  0.00    -0.033 A 
ATOM      6  C2  MOL d          65.495  37.650  25.789  0.00  0.00     0.102 A 
ATOM      7  H1  MOL d          65.350  36.260  27.394  0.00  0.00     0.089 H 
ATOM      8  C1  MOL d          65.449  37.826  24.402  0.00  0.00     0.099 A 
ATOM      9  C6  MOL d          65.179  36.727  23.573  0.00  0.00    -0.047 A 
ATOM     10  C5  MOL d          64.970  35.475  24.123  0.00  0.00    -0.065 A 
ATOM     11  H3  MOL d          65.134  36.859  22.498  0.00  0.00     0.087 H 
ATOM     12  H2  MOL d          64.764  34.628  23.479  0.00  0.00     0.085 H 
BRANCH   6  13
ATOM     13  O16 MOL d          65.769  38.760  26.545  0.00  0.00    -0.353 OA
BRANCH  13  14
ATOM     14  C15 MOL d          66.542  38.565  27.759  0.00  0.00     0.010 C 
ATOM     15  H15 MOL d          67.190  37.684  27.643  0.00  0.00     0.066 H 
ATOM     16  H16 MOL d          65.860  38.409  28.607  0.00  0.00     0.066 H 
ATOM     17  H17 MOL d          67.162  39.454  27.945  0.00  0.00     0.066 H 
ENDBRANCH  13  14
ENDBRANCH   6  13
BRANCH   8  18
ATOM     18  O7  MOL d          65.677  39.062  23.874  0.00  0.00    -0.358 OA
ATOM     19  H4  MOL d          66.018  39.636  24.550  0.00  0.00     0.217 HD
ENDBRANCH   8  18
ENDBRANCH   1   4
BRANCH   3  20
ATOM     20  C10 MOL d          67.225  33.544  25.971  0.00  0.00    -0.005 C 
ATOM     21  H8  MOL d          67.521  32.706  25.323  0.00  0.00     0.063 H 
ATOM     22  H9  MOL d          67.169  34.466  25.375  0.00  0.00     0.063 H 
BRANCH  20  23
ATOM     23  C9  MOL d          68.275  33.722  27.045  0.00  0.00    -0.061 C 
ATOM     24  H5  MOL d          67.788  33.765  28.031  0.00  0.00     0.029 H 
ATOM     25  H6  MOL d          68.826  34.657  26.868  0.00  0.00     0.029 H 
ATOM     26  H7  MOL d          68.975  32.874  27.019  0.00  0.00     0.029 H 
ENDBRANCH  20  23
ENDBRANCH   3  20
BRANCH   3  27
ATOM     27  C12 MOL d          65.780  32.059  27.361  0.00  0.00    -0.005 C 
ATOM     28  H10 MOL d          65.056  31.372  26.898  0.00  0.00     0.063 H 
ATOM     29  H11 MOL d          66.766  31.573  27.414  0.00  0.00     0.063 H 
BRANCH  27  30
ATOM     30  C13 MOL d          65.316  32.387  28.768  0.00  0.00    -0.061 C 
ATOM     31  H12 MOL d          64.368  31.868  28.972  0.00  0.00     0.029 H 
ATOM     32  H13 MOL d          65.167  33.473  28.862  0.00  0.00     0.029 H 
ATOM     33  H14 MOL d          66.077  32.057  29.491  0.00  0.00     0.029 H 
ENDBRANCH  27  30
ENDBRANCH   3  27
TORSDOF 8
ENDMDL
MODEL 4
REMARK VINA RESULT:      -5.5      2.451      5.475
REMARK  8 active torsions:
REMARK  status: ('A' for Active; 'I' for Inactive)
REMARK    1  A    between atoms: C1_1  and  O7_7 
REMARK    2  A    between atoms: C2_2  and  O16_14 
REMARK    3  A    between atoms: C14_12  and  C4_4 
REMARK    4  A    between atoms: C10_9  and  C9_8 
REMARK    5  A    between atoms: N3_15  and  C10_9 
REMARK    6  A    between atoms: C12_10  and  C13_11 
REMARK    7  A    between atoms: N3_15  and  C12_10 
REMARK       I    between atoms: C14_12  and  N3_15 
REMARK    8  A    between atoms: O16_14  and  C15_16 
ROOT
ATOM      1  C14 MOL d          64.514  34.579  26.214  0.00  0.00     0.253 C 
ATOM      2  O15 MOL d          63.372  34.688  25.828  0.00  0.00    -0.267 OA
ATOM      3  N3  MOL d          64.926  33.567  27.033  0.00  0.00    -0.349 N 
ENDROOT
BRANCH   1   4
ATOM      4  C4  MOL d          65.521  35.613  25.839  0.00  0.00     0.035 A 
ATOM      5  C3  MOL d          65.809  35.831  24.500  0.00  0.00    -0.033 A 
ATOM      6  C2  MOL d          66.747  36.759  24.110  0.00  0.00     0.102 A 
ATOM      7  H1  MOL d          65.285  35.257  23.744  0.00  0.00     0.089 H 
ATOM      8  C1  MOL d          67.410  37.519  25.080  0.00  0.00     0.099 A 
ATOM      9  C6  MOL d          67.124  37.309  26.438  0.00  0.00    -0.047 A 
ATOM     10  C5  MOL d          66.186  36.365  26.814  0.00  0.00    -0.065 A 
ATOM     11  H3  MOL d          67.640  37.889  27.195  0.00  0.00     0.087 H 
ATOM     12  H2  MOL d          65.966  36.207  27.863  0.00  0.00     0.085 H 
BRANCH   6  13
ATOM     13  O16 MOL d          67.065  37.014  22.801  0.00  0.00    -0.353 OA
BRANCH  13  14
ATOM     14  C15 MOL d          66.121  37.802  22.028  0.00  0.00     0.010 C 
ATOM     15  H15 MOL d          65.485  37.131  21.432  0.00  0.00     0.066 H 
ATOM     16  H16 MOL d          66.671  38.477  21.356  0.00  0.00     0.066 H 
ATOM     17  H17 MOL d          65.492  38.394  22.709  0.00  0.00     0.066 H 
ENDBRANCH  13  14
ENDBRANCH   6  13
BRANCH   8  18
ATOM     18  O7  MOL d          68.317  38.460  24.693  0.00  0.00    -0.358 OA
ATOM     19  H4  MOL d          67.907  39.060  24.081  0.00  0.00     0.217 HD
ENDBRANCH   8  18
ENDBRANCH   1   4
BRANCH   3  20
ATOM     20  C10 MOL d          66.357  33.227  27.165  0.00  0.00    -0.005 C 
ATOM     21  H8  MOL d          66.956  34.083  26.821  0.00  0.00     0.063 H 
ATOM     22  H9  MOL d          66.576  33.027  28.224  0.00  0.00     0.063 H 
BRANCH  20  23
ATOM     23  C9  MOL d          66.739  32.010  26.351  0.00  0.00    -0.061 C 
ATOM     24  H5  MOL d          67.167  31.244  27.016  0.00  0.00     0.029 H 
ATOM     25  H6  MOL d          67.482  32.295  25.593  0.00  0.00     0.029 H 
ATOM     26  H7  MOL d          65.844  31.606  25.855  0.00  0.00     0.029 H 
ENDBRANCH  20  23
ENDBRANCH   3  20
BRANCH   3  27
ATOM     27  C12 MOL d          63.984  32.636  27.654  0.00  0.00    -0.005 C 
ATOM     28  H10 MOL d          62.973  33.067  27.603  0.00  0.00     0.063 H 
ATOM     29  H11 MOL d          64.006  31.685  27.102  0.00  0.00     0.063 H 
BRANCH  27  30
ATOM     30  C13 MOL d          64.331  32.370  29.108  0.00  0.00    -0.061 C 
ATOM     31  H12 MOL d          65.381  32.051  29.181  0.00  0.00     0.029 H 
ATOM     32  H13 MOL d          63.678  31.576  29.501  0.00  0.00     0.029 H 
ATOM     33  H14 MOL d          64.185  33.289  29.694  0.00  0.00     0.029 H 
ENDBRANCH  27  30
ENDBRANCH   3  27
TORSDOF 8
ENDMDL
MODEL 5
REMARK VINA RESULT:      -5.2      2.558      5.586
REMARK  8 active torsions:
REMARK  status: ('A' for Active; 'I' for Inactive)
REMARK    1  A    between atoms: C1_1  and  O7_7 
REMARK    2  A    between atoms: C2_2  and  O16_14 
REMARK    3  A    between atoms: C14_12  and  C4_4 
REMARK    4  A    between atoms: C10_9  and  C9_8 
REMARK    5  A    between atoms: N3_15  and  C10_9 
REMARK    6  A    between atoms: C12_10  and  C13_11 
REMARK    7  A    between atoms: N3_15  and  C12_10 
REMARK       I    between atoms: C14_12  and  N3_15 
REMARK    8  A    between atoms: O16_14  and  C15_16 
ROOT
ATOM      1  C14 MOL d          66.848  34.224  26.916  0.00  0.00     0.253 C 
ATOM      2  O15 MOL d          67.712  33.530  27.401  0.00  0.00    -0.267 OA
ATOM      3  N3  MOL d          65.535  33.851  26.870  0.00  0.00    -0.349 N 
ENDROOT
BRANCH   1   4
ATOM      4  C4  MOL d          67.215  35.523  26.282  0.00  0.00     0.035 A 
ATOM      5  C3  MOL d          66.860  35.763  24.962  0.00  0.00    -0.033 A 
ATOM      6  C2  MOL d          67.198  36.938  24.331  0.00  0.00     0.102 A 
ATOM      7  H1  MOL d          66.305  35.008  24.417  0.00  0.00     0.089 H 
ATOM      8  C1  MOL d          67.893  37.925  25.038  0.00  0.00     0.099 A 
ATOM      9  C6  MOL d          68.254  37.695  26.374  0.00  0.00    -0.047 A 
ATOM     10  C5  MOL d          67.917  36.504  26.991  0.00  0.00    -0.065 A 
ATOM     11  H3  MOL d          68.800  38.453  26.925  0.00  0.00     0.087 H 
ATOM     12  H2  MOL d          68.195  36.331  28.024  0.00  0.00     0.085 H 
BRANCH   6  13
ATOM     13  O16 MOL d          66.868  37.225  23.032  0.00  0.00    -0.353 OA
BRANCH  13  14
ATOM     14  C15 MOL d          65.455  37.322  22.710  0.00  0.00     0.010 C 
ATOM     15  H15 MOL d          65.038  38.234  23.160  0.00  0.00     0.066 H 
ATOM     16  H16 MOL d          64.927  36.442  23.107  0.00  0.00     0.066 H 
ATOM     17  H17 MOL d          65.330  37.362  21.618  0.00  0.00     0.066 H 
ENDBRANCH  13  14
ENDBRANCH   6  13
BRANCH   8  18
ATOM     18  O7  MOL d          68.201  39.101  24.422  0.00  0.00    -0.358 OA
ATOM     19  H4  MOL d          67.980  39.825  24.996  0.00  0.00     0.217 HD
ENDBRANCH   8  18
ENDBRANCH   1   4
BRANCH   3  20
ATOM     20  C10 MOL d          64.466  34.846  26.648  0.00  0.00    -0.005 C 
ATOM     21  H8  MOL d          63.931  35.006  27.596  0.00  0.00     0.063 H 
ATOM     22  H9  MOL d          64.926  35.790  26.321  0.00  0.00     0.063 H 
BRANCH  20  23
ATOM     23  C9  MOL d          63.472  34.401  25.598  0.00  0.00    -0.061 C 
ATOM     24  H5  MOL d          63.548  33.312  25.460  0.00  0.00     0.029 H 
ATOM     25  H6  MOL d          63.692  34.907  24.647  0.00  0.00     0.029 H 
ATOM     26  H7  MOL d          62.454  34.659  25.925  0.00  0.00     0.029 H 
ENDBRANCH  20  23
ENDBRANCH   3  20
BRANCH   3  27
ATOM     27  C12 MOL d          65.095  32.506  27.242  0.00  0.00    -0.005 C 
ATOM     28  H10 MOL d          64.296  32.190  26.556  0.00  0.00     0.063 H 
ATOM     29  H11 MOL d          65.948  31.816  27.155  0.00  0.00     0.063 H 
BRANCH  27  30
ATOM     30  C13 MOL d          64.569  32.460  28.665  0.00  0.00    -0.061 C 
ATOM     31  H12 MOL d          64.139  31.468  28.864  0.00  0.00     0.029 H 
ATOM     32  H13 MOL d          63.793  33.229  28.794  0.00  0.00     0.029 H 
ATOM     33  H14 MOL d          65.394  32.649  29.368  0.00  0.00     0.029 H 
ENDBRANCH  27  30
ENDBRANCH   3  27
TORSDOF 8
ENDMDL
MODEL 6
REMARK VINA RESULT:      -4.9      2.701      4.501
REMARK  8 active torsions:
REMARK  status: ('A' for Active; 'I' for Inactive)
REMARK    1  A    between atoms: C1_1  and  O7_7 
REMARK    2  A    between atoms: C2_2  and  O16_14 
REMARK    3  A    between atoms: C14_12  and  C4_4 
REMARK    4  A    between atoms: C10_9  and  C9_8 
REMARK    5  A    between atoms: N3_15  and  C10_9 
REMARK    6  A    between atoms: C12_10  and  C13_11 
REMARK    7  A    between atoms: N3_15  and  C12_10 
REMARK       I    between atoms: C14_12  and  N3_15 
REMARK    8  A    between atoms: O16_14  and  C15_16 
ROOT
ATOM      1  C14 MOL d          67.804  36.169  26.989  0.00  0.00     0.253 C 
ATOM      2  O15 MOL d          68.556  35.287  27.335  0.00  0.00    -0.267 OA
ATOM      3  N3  MOL d          67.917  37.456  27.432  0.00  0.00    -0.349 N 
ENDROOT
BRANCH   1   4
ATOM      4  C4  MOL d          66.660  35.851  26.086  0.00  0.00     0.035 A 
ATOM      5  C3  MOL d          65.516  35.270  26.613  0.00  0.00    -0.033 A 
ATOM      6  C2  MOL d          64.446  34.940  25.813  0.00  0.00     0.102 A 
ATOM      7  H1  MOL d          65.463  35.073  27.678  0.00  0.00     0.089 H 
ATOM      8  C1  MOL d          64.499  35.216  24.443  0.00  0.00     0.099 A 
ATOM      9  C6  MOL d          65.650  35.805  23.899  0.00  0.00    -0.047 A 
ATOM     10  C5  MOL d          66.721  36.122  24.715  0.00  0.00    -0.065 A 
ATOM     11  H3  MOL d          65.701  36.014  22.836  0.00  0.00     0.087 H 
ATOM     12  H2  MOL d          67.608  36.579  24.292  0.00  0.00     0.085 H 
BRANCH   6  13
ATOM     13  O16 MOL d          63.292  34.370  26.285  0.00  0.00    -0.353 OA
BRANCH  13  14
ATOM     14  C15 MOL d          63.424  33.354  27.314  0.00  0.00     0.010 C 
ATOM     15  H15 MOL d          62.506  33.322  27.918  0.00  0.00     0.066 H 
ATOM     16  H16 MOL d          64.280  33.597  27.962  0.00  0.00     0.066 H 
ATOM     17  H17 MOL d          63.588  32.373  26.843  0.00  0.00     0.066 H 
ENDBRANCH  13  14
ENDBRANCH   6  13
BRANCH   8  18
ATOM     18  O7  MOL d          63.427  34.916  23.655  0.00  0.00    -0.358 OA
ATOM     19  H4  MOL d          63.549  34.056  23.271  0.00  0.00     0.217 HD
ENDBRANCH   8  18
ENDBRANCH   1   4
BRANCH   3  20
ATOM     20  C10 MOL d          67.263  38.570  26.715  0.00  0.00    -0.005 C 
ATOM     21  H8  MOL d          66.326  38.202  26.272  0.00  0.00     0.063 H 
ATOM     22  H9  MOL d          67.041  39.371  27.435  0.00  0.00     0.063 H 
BRANCH  20  23
ATOM     23  C9  MOL d          68.132  39.134  25.613  0.00  0.00    -0.061 C 
ATOM     24  H5  MOL d          68.216  38.398  24.799  0.00  0.00     0.029 H 
ATOM     25  H6  MOL d          69.133  39.355  26.012  0.00  0.00     0.029 H 
ATOM     26  H7  MOL d          67.680  40.058  25.226  0.00  0.00     0.029 H 
ENDBRANCH  20  23
ENDBRANCH   3  20
BRANCH   3  27
ATOM     27  C12 MOL d          68.845  37.833  28.497  0.00  0.00    -0.005 C 
ATOM     28  H10 MOL d          68.862  37.035  29.254  0.00  0.00     0.063 H 
ATOM     29  H11 MOL d          69.851  37.952  28.067  0.00  0.00     0.063 H 
BRANCH  27  30
ATOM     30  C13 MOL d          68.439  39.134  29.165  0.00  0.00    -0.061 C 
ATOM     31  H12 MOL d          68.757  39.981  28.540  0.00  0.00     0.029 H 
ATOM     32  H13 MOL d          68.919  39.206  30.152  0.00  0.00     0.029 H 
ATOM     33  H14 MOL d          67.346  39.159  29.285  0.00  0.00     0.029 H 
ENDBRANCH  27  30
ENDBRANCH   3  27
TORSDOF 8
ENDMDL
MODEL 7
REMARK VINA RESULT:      -4.8      1.762      2.976
REMARK  8 active torsions:
REMARK  status: ('A' for Active; 'I' for Inactive)
REMARK    1  A    between atoms: C1_1  and  O7_7 
REMARK    2  A    between atoms: C2_2  and  O16_14 
REMARK    3  A    between atoms: C14_12  and  C4_4 
REMARK    4  A    between atoms: C10_9  and  C9_8 
REMARK    5  A    between atoms: N3_15  and  C10_9 
REMARK    6  A    between atoms: C12_10  and  C13_11 
REMARK    7  A    between atoms: N3_15  and  C12_10 
REMARK       I    between atoms: C14_12  and  N3_15 
REMARK    8  A    between atoms: O16_14  and  C15_16 
ROOT
ATOM      1  C14 MOL d          65.751  37.244  25.605  0.00  0.00     0.253 C 
ATOM      2  O15 MOL d          65.913  38.194  26.337  0.00  0.00    -0.267 OA
ATOM      3  N3  MOL d          65.342  37.369  24.308  0.00  0.00    -0.349 N 
ENDROOT
BRANCH   1   4
ATOM      4  C4  MOL d          65.945  35.864  26.134  0.00  0.00     0.035 A 
ATOM      5  C3  MOL d          64.841  35.050  26.338  0.00  0.00    -0.033 A 
ATOM      6  C2  MOL d          64.971  33.777  26.845  0.00  0.00     0.102 A 
ATOM      7  H1  MOL d          63.853  35.424  26.092  0.00  0.00     0.089 H 
ATOM      8  C1  MOL d          66.245  33.281  27.142  0.00  0.00     0.099 A 
ATOM      9  C6  MOL d          67.370  34.095  26.937  0.00  0.00    -0.047 A 
ATOM     10  C5  MOL d          67.221  35.375  26.436  0.00  0.00    -0.065 A 
ATOM     11  H3  MOL d          68.359  33.718  27.173  0.00  0.00     0.087 H 
ATOM     12  H2  MOL d          68.092  35.999  26.277  0.00  0.00     0.085 H 
BRANCH   6  13
ATOM     13  O16 MOL d          63.913  32.933  27.061  0.00  0.00    -0.353 OA
BRANCH  13  14
ATOM     14  C15 MOL d          63.368  32.877  28.406  0.00  0.00     0.010 C 
ATOM     15  H15 MOL d          63.411  31.843  28.776  0.00  0.00     0.066 H 
ATOM     16  H16 MOL d          62.323  33.219  28.392  0.00  0.00     0.066 H 
ATOM     17  H17 MOL d          63.958  33.528  29.068  0.00  0.00     0.066 H 
ENDBRANCH  13  14
ENDBRANCH   6  13
BRANCH   8  18
ATOM     18  O7  MOL d          66.377  32.010  27.616  0.00  0.00    -0.358 OA
ATOM     19  H4  MOL d          67.131  31.965  28.193  0.00  0.00     0.217 HD
ENDBRANCH   8  18
ENDBRANCH   1   4
BRANCH   3  20
ATOM     20  C10 MOL d          65.531  36.270  23.339  0.00  0.00    -0.005 C 
ATOM     21  H8  MOL d          66.020  36.673  22.440  0.00  0.00     0.063 H 
ATOM     22  H9  MOL d          66.176  35.505  23.795  0.00  0.00     0.063 H 
BRANCH  20  23
ATOM     23  C9  MOL d          64.224  35.626  22.934  0.00  0.00    -0.061 C 
ATOM     24  H5  MOL d          63.671  36.305  22.268  0.00  0.00     0.029 H 
ATOM     25  H6  MOL d          63.623  35.422  23.832  0.00  0.00     0.029 H 
ATOM     26  H7  MOL d          64.428  34.682  22.408  0.00  0.00     0.029 H 
ENDBRANCH  20  23
ENDBRANCH   3  20
BRANCH   3  27
ATOM     27  C12 MOL d          64.894  38.646  23.753  0.00  0.00    -0.005 C 
ATOM     28  H10 MOL d          63.801  38.619  23.634  0.00  0.00     0.063 H 
ATOM     29  H11 MOL d          65.168  39.453  24.450  0.00  0.00     0.063 H 
BRANCH  27  30
ATOM     30  C13 MOL d          65.528  38.926  22.402  0.00  0.00    -0.061 C 
ATOM     31  H12 MOL d          65.185  39.903  22.032  0.00  0.00     0.029 H 
ATOM     32  H13 MOL d          65.236  38.141  21.690  0.00  0.00     0.029 H 
ATOM     33  H14 MOL d          66.623  38.938  22.507  0.00  0.00     0.029 H 
ENDBRANCH  27  30
ENDBRANCH   3  27
TORSDOF 8
ENDMDL
MODEL 8
REMARK VINA RESULT:      -4.7      2.318      5.635
REMARK  8 active torsions:
REMARK  status: ('A' for Active; 'I' for Inactive)
REMARK    1  A    between atoms: C1_1  and  O7_7 
REMARK    2  A    between atoms: C2_2  and  O16_14 
REMARK    3  A    between atoms: C14_12  and  C4_4 
REMARK    4  A    between atoms: C10_9  and  C9_8 
REMARK    5  A    between atoms: N3_15  and  C10_9 
REMARK    6  A    between atoms: C12_10  and  C13_11 
REMARK    7  A    between atoms: N3_15  and  C12_10 
REMARK       I    between atoms: C14_12  and  N3_15 
REMARK    8  A    between atoms: O16_14  and  C15_16 
ROOT
ATOM      1  C14 MOL d          67.366  35.839  26.623  0.00  0.00     0.253 C 
ATOM      2  O15 MOL d          68.352  36.279  27.168  0.00  0.00    -0.267 OA
ATOM      3  N3  MOL d          66.965  34.539  26.750  0.00  0.00    -0.349 N 
ENDROOT
BRANCH   1   4
ATOM      4  C4  MOL d          66.567  36.719  25.722  0.00  0.00     0.035 A 
ATOM      5  C3  MOL d          66.679  36.570  24.347  0.00  0.00    -0.033 A 
ATOM      6  C2  MOL d          65.978  37.374  23.479  0.00  0.00     0.102 A 
ATOM      7  H1  MOL d          67.334  35.802  23.949  0.00  0.00     0.089 H 
ATOM      8  C1  MOL d          65.114  38.350  23.988  0.00  0.00     0.099 A 
ATOM      9  C6  MOL d          64.991  38.508  25.377  0.00  0.00    -0.047 A 
ATOM     10  C5  MOL d          65.710  37.698  26.236  0.00  0.00    -0.065 A 
ATOM     11  H3  MOL d          64.329  39.268  25.777  0.00  0.00     0.087 H 
ATOM     12  H2  MOL d          65.610  37.822  27.308  0.00  0.00     0.085 H 
BRANCH   6  13
ATOM     13  O16 MOL d          66.051  37.264  22.115  0.00  0.00    -0.353 OA
BRANCH  13  14
ATOM     14  C15 MOL d          67.289  37.678  21.478  0.00  0.00     0.010 C 
ATOM     15  H15 MOL d          67.061  38.203  20.539  0.00  0.00     0.066 H 
ATOM     16  H16 MOL d          67.904  36.792  21.262  0.00  0.00     0.066 H 
ATOM     17  H17 MOL d          67.840  38.352  22.150  0.00  0.00     0.066 H 
ENDBRANCH  13  14
ENDBRANCH   6  13
BRANCH   8  18
ATOM     18  O7  MOL d          64.397  39.126  23.128  0.00  0.00    -0.358 OA
ATOM     19  H4  MOL d          63.886  38.570  22.551  0.00  0.00     0.217 HD
ENDBRANCH   8  18
ENDBRANCH   1   4
BRANCH   3  20
ATOM     20  C10 MOL d          65.585  34.131  26.419  0.00  0.00    -0.005 C 
ATOM     21  H8  MOL d          64.956  35.031  26.357  0.00  0.00     0.063 H 
ATOM     22  H9  MOL d          65.592  33.619  25.445  0.00  0.00     0.063 H 
BRANCH  20  23
ATOM     23  C9  MOL d          64.996  33.198  27.454  0.00  0.00    -0.061 C 
ATOM     24  H5  MOL d          65.091  32.158  27.106  0.00  0.00     0.029 H 
ATOM     25  H6  MOL d          63.933  33.439  27.602  0.00  0.00     0.029 H 
ATOM     26  H7  MOL d          65.535  33.317  28.405  0.00  0.00     0.029 H 
ENDBRANCH  20  23
ENDBRANCH   3  20
BRANCH   3  27
ATOM     27  C12 MOL d          67.794  33.531  27.410  0.00  0.00    -0.005 C 
ATOM     28  H10 MOL d          68.749  33.992  27.702  0.00  0.00     0.063 H 
ATOM     29  H11 MOL d          67.270  33.171  28.308  0.00  0.00     0.063 H 
BRANCH  27  30
ATOM     30  C13 MOL d          68.077  32.351  26.498  0.00  0.00    -0.061 C 
ATOM     31  H12 MOL d          68.943  32.580  25.860  0.00  0.00     0.029 H 
ATOM     32  H13 MOL d          67.198  32.157  25.866  0.00  0.00     0.029 H 
ATOM     33  H14 MOL d          68.295  31.461  27.107  0.00  0.00     0.029 H 
ENDBRANCH  27  30
ENDBRANCH   3  27
TORSDOF 8
ENDMDL
MODEL 9
REMARK VINA RESULT:      -4.6      2.503      4.729
REMARK  8 active torsions:
REMARK  status: ('A' for Active; 'I' for Inactive)
REMARK    1  A    between atoms: C1_1  and  O7_7 
REMARK    2  A    between atoms: C2_2  and  O16_14 
REMARK    3  A    between atoms: C14_12  and  C4_4 
REMARK    4  A    between atoms: C10_9  and  C9_8 
REMARK    5  A    between atoms: N3_15  and  C10_9 
REMARK    6  A    between atoms: C12_10  and  C13_11 
REMARK    7  A    between atoms: N3_15  and  C12_10 
REMARK       I    between atoms: C14_12  and  N3_15 
REMARK    8  A    between atoms: O16_14  and  C15_16 
ROOT
ATOM      1  C14 MOL d          67.836  35.867  26.990  0.00  0.00     0.253 C 
ATOM      2  O15 MOL d          68.527  34.944  27.355  0.00  0.00    -0.267 OA
ATOM      3  N3  MOL d          67.996  37.142  27.453  0.00  0.00    -0.349 N 
ENDROOT
BRANCH   1   4
ATOM      4  C4  MOL d          66.718  35.618  26.035  0.00  0.00     0.035 A 
ATOM      5  C3  MOL d          66.652  36.346  24.856  0.00  0.00    -0.033 A 
ATOM      6  C2  MOL d          65.626  36.165  23.958  0.00  0.00     0.102 A 
ATOM      7  H1  MOL d          67.426  37.073  24.638  0.00  0.00     0.089 H 
ATOM      8  C1  MOL d          64.638  35.211  24.223  0.00  0.00     0.099 A 
ATOM      9  C6  MOL d          64.696  34.467  25.411  0.00  0.00    -0.047 A 
ATOM     10  C5  MOL d          65.728  34.668  26.309  0.00  0.00    -0.065 A 
ATOM     11  H3  MOL d          63.928  33.731  25.627  0.00  0.00     0.087 H 
ATOM     12  H2  MOL d          65.771  34.090  27.225  0.00  0.00     0.085 H 
BRANCH   6  13
ATOM     13  O16 MOL d          65.518  36.855  22.778  0.00  0.00    -0.353 OA
BRANCH  13  14
ATOM     14  C15 MOL d          65.336  38.293  22.862  0.00  0.00     0.010 C 
ATOM     15  H15 MOL d          64.280  38.540  22.678  0.00  0.00     0.066 H 
ATOM     16  H16 MOL d          65.964  38.787  22.107  0.00  0.00     0.066 H 
ATOM     17  H17 MOL d          65.624  38.642  23.865  0.00  0.00     0.066 H 
ENDBRANCH  13  14
ENDBRANCH   6  13
BRANCH   8  18
ATOM     18  O7  MOL d          63.638  35.009  23.319  0.00  0.00    -0.358 OA
ATOM     19  H4  MOL d          63.656  35.703  22.670  0.00  0.00     0.217 HD
ENDBRANCH   8  18
ENDBRANCH   1   4
BRANCH   3  20
ATOM     20  C10 MOL d          67.433  38.296  26.722  0.00  0.00    -0.005 C 
ATOM     21  H8  MOL d          68.158  39.122  26.754  0.00  0.00     0.063 H 
ATOM     22  H9  MOL d          67.258  38.000  25.677  0.00  0.00     0.063 H 
BRANCH  20  23
ATOM     23  C9  MOL d          66.127  38.773  27.318  0.00  0.00    -0.061 C 
ATOM     24  H5  MOL d          66.084  38.491  28.381  0.00  0.00     0.029 H 
ATOM     25  H6  MOL d          65.287  38.307  26.781  0.00  0.00     0.029 H 
ATOM     26  H7  MOL d          66.059  39.866  27.225  0.00  0.00     0.029 H 
ENDBRANCH  20  23
ENDBRANCH   3  20
BRANCH   3  27
ATOM     27  C12 MOL d          68.897  37.459  28.560  0.00  0.00    -0.005 C 
ATOM     28  H10 MOL d          68.426  37.147  29.504  0.00  0.00     0.063 H 
ATOM     29  H11 MOL d          69.840  36.909  28.422  0.00  0.00     0.063 H 
BRANCH  27  30
ATOM     30  C13 MOL d          69.201  38.945  28.631  0.00  0.00    -0.061 C 
ATOM     31  H12 MOL d          68.637  39.396  29.460  0.00  0.00     0.029 H 
ATOM     32  H13 MOL d          68.908  39.424  27.685  0.00  0.00     0.029 H 
ATOM     33  H14 MOL d          70.278  39.092  28.798  0.00  0.00     0.029 H 
ENDBRANCH  27  30
ENDBRANCH   3  27
TORSDOF 8
ENDMDL
