MODEL 1
REMARK VINA RESULT:     -12.0      0.000      0.000
REMARK  7 active torsions:
REMARK  status: ('A' for Active; 'I' for Inactive)
REMARK    1  A    between atoms: C2_4  and  C8_8 
REMARK    2  A    between atoms: C4_6  and  C7_7 
REMARK    3  A    between atoms: C13_9  and  C14_10 
REMARK    4  A    between atoms: C16_16  and  C19_17 
REMARK    5  A    between atoms: C17_18  and  O20_19 
REMARK    6  A    between atoms: C48_24  and  C49_25 
REMARK    7  A    between atoms: C36_28  and  C38_29 
ROOT
ATOM      1  C8  GYN d           5.368  25.005  -8.203  0.00  0.00    -0.048 C 
ATOM      2  C13 GYN d           4.414  25.764  -7.625  0.00  0.00    -0.070 C 
ATOM      3  C12 GYN d           4.022  25.639  -6.168  0.00  0.00    -0.003 C 
ATOM      4  C27 GYN d           5.059  24.858  -5.347  0.00  0.00     0.011 C 
ATOM      5  C10 GYN d           5.429  23.595  -6.125  0.00  0.00    -0.049 C 
ATOM      6  C9  GYN d           6.015  23.834  -7.508  0.00  0.00    -0.041 C 
ATOM      7  C15 GYN d           3.804  27.029  -5.588  0.00  0.00    -0.090 C 
ATOM      8  C16 GYN d           2.628  27.545  -5.167  0.00  0.00    -0.059 C 
ATOM      9  C17 GYN d           2.642  28.956  -4.628  0.00  0.00     0.057 C 
ATOM     10  C18 GYN d           2.045  29.019  -3.226  0.00  0.00    -0.035 C 
ATOM     11  C21 GYN d           3.052  28.782  -2.116  0.00  0.00    -0.038 C 
ATOM     12  C43 GYN d           2.810  27.469  -1.386  0.00  0.00     0.040 C 
ATOM     13  C47 GYN d           3.416  27.420   0.012  0.00  0.00    -0.035 C 
ATOM     14  C48 GYN d           2.483  26.522   0.808  0.00  0.00    -0.026 C 
ATOM     15  O43 GYN d           1.434  27.103  -1.200  0.00  0.00    -0.376 OA
ATOM     16  C37 GYN d           1.400  26.091  -0.174  0.00  0.00     0.063 C 
ATOM     17  C36 GYN d           1.668  24.702  -0.713  0.00  0.00    -0.059 C 
ATOM     18  C35 GYN d           2.210  24.565  -1.942  0.00  0.00    -0.098 C 
ATOM     19  C34 GYN d           2.557  23.269  -2.651  0.00  0.00    -0.045 C 
ATOM     20  C33 GYN d           3.112  23.561  -4.054  0.00  0.00    -0.025 C 
ATOM     21  C32 GYN d           4.428  24.338  -4.058  0.00  0.00     0.016 C 
ATOM     22  N31 GYN d           5.032  24.527  -2.956  0.00  0.00    -0.298 NA
ATOM     23  C30 GYN d           6.419  24.886  -2.700  0.00  0.00     0.015 C 
ATOM     24  C46 GYN d           6.711  26.033  -3.656  0.00  0.00    -0.047 C 
ATOM     25  C28 GYN d           6.312  25.732  -5.098  0.00  0.00    -0.051 C 
ATOM     26  H11 GYN d           3.070  25.090  -6.116  0.00  0.00     0.054 H 
ATOM     27  H12 GYN d           4.518  22.989  -6.242  0.00  0.00     0.035 H 
ATOM     28  H13 GYN d           6.169  23.035  -5.534  0.00  0.00     0.035 H 
ATOM     29  H14 GYN d           7.093  24.032  -7.407  0.00  0.00     0.039 H 
ATOM     30  H15 GYN d           5.864  22.932  -8.118  0.00  0.00     0.039 H 
ATOM     31  H16 GYN d           4.680  27.669  -5.504  0.00  0.00     0.078 H 
ATOM     32  H20 GYN d           3.677  29.329  -4.602  0.00  0.00     0.090 H 
ATOM     33  H22 GYN d           1.259  28.252  -3.151  0.00  0.00     0.037 H 
ATOM     34  H23 GYN d           1.602  30.015  -3.084  0.00  0.00     0.037 H 
ATOM     35  H24 GYN d           2.981  29.607  -1.392  0.00  0.00     0.036 H 
ATOM     36  H25 GYN d           4.062  28.763  -2.552  0.00  0.00     0.036 H 
ATOM     37  H26 GYN d           3.287  26.688  -1.996  0.00  0.00     0.083 H 
ATOM     38  H27 GYN d           3.454  28.427   0.453  0.00  0.00     0.037 H 
ATOM     39  H28 GYN d           4.429  26.996  -0.019  0.00  0.00     0.037 H 
ATOM     40  H29 GYN d           3.025  25.646   1.193  0.00  0.00     0.043 H 
ATOM     41  H33 GYN d           0.417  26.091   0.320  0.00  0.00     0.091 H 
ATOM     42  H37 GYN d           2.422  25.486  -2.484  0.00  0.00     0.077 H 
ATOM     43  H38 GYN d           1.652  22.650  -2.741  0.00  0.00     0.039 H 
ATOM     44  H39 GYN d           3.315  22.727  -2.067  0.00  0.00     0.039 H 
ATOM     45  H40 GYN d           2.364  24.149  -4.606  0.00  0.00     0.042 H 
ATOM     46  H41 GYN d           3.277  22.601  -4.566  0.00  0.00     0.042 H 
ATOM     47  H42 GYN d           7.083  24.033  -2.905  0.00  0.00     0.067 H 
ATOM     48  H43 GYN d           6.549  25.208  -1.657  0.00  0.00     0.067 H 
ATOM     49  H44 GYN d           7.790  26.245  -3.629  0.00  0.00     0.035 H 
ATOM     50  H45 GYN d           6.154  26.920  -3.317  0.00  0.00     0.035 H 
ATOM     51  H46 GYN d           6.141  26.697  -5.597  0.00  0.00     0.034 H 
ATOM     52  H47 GYN d           7.164  25.221  -5.571  0.00  0.00     0.034 H 
ENDROOT
BRANCH   1  53
ATOM     53  C2  GYN d           5.861  25.341  -9.583  0.00  0.00     0.071 C 
ATOM     54  O1  GYN d           6.991  26.209  -9.485  0.00  0.00    -0.311 OA
ATOM     55  C5  GYN d           7.953  25.720 -10.446  0.00  0.00     0.263 C 
ATOM     56  O6  GYN d           9.021  26.270 -10.629  0.00  0.00    -0.265 OA
ATOM     57  C4  GYN d           7.510  24.513 -11.190  0.00  0.00     0.029 C 
ATOM     58  C3  GYN d           6.279  24.104 -10.390  0.00  0.00    -0.025 C 
ATOM     59  H4  GYN d           7.228  24.768 -12.222  0.00  0.00     0.055 H 
ATOM     60  H2  GYN d           5.468  23.799 -11.068  0.00  0.00     0.038 H 
ATOM     61  H3  GYN d           6.524  23.273  -9.713  0.00  0.00     0.038 H 
ATOM     62  H1  GYN d           5.052  25.855 -10.124  0.00  0.00     0.091 H 
BRANCH  57  63
ATOM     63  C7  GYN d           8.604  23.460 -11.239  0.00  0.00    -0.064 C 
ATOM     64  H5  GYN d           9.450  23.837 -11.834  0.00  0.00     0.028 H 
ATOM     65  H6  GYN d           8.211  22.542 -11.703  0.00  0.00     0.028 H 
ATOM     66  H7  GYN d           8.945  23.236 -10.218  0.00  0.00     0.028 H 
ENDBRANCH  57  63
ENDBRANCH   1  53
BRANCH   2  67
ATOM     67  C14 GYN d           3.695  26.811  -8.448  0.00  0.00    -0.054 C 
ATOM     68  H8  GYN d           4.075  26.793  -9.480  0.00  0.00     0.033 H 
ATOM     69  H9  GYN d           3.870  27.805  -8.011  0.00  0.00     0.033 H 
ATOM     70  H10 GYN d           2.616  26.598  -8.451  0.00  0.00     0.033 H 
ENDBRANCH   2  67
BRANCH   8  71
ATOM     71  C19 GYN d           1.325  26.784  -5.232  0.00  0.00    -0.052 C 
ATOM     72  H17 GYN d           1.506  25.782  -5.648  0.00  0.00     0.033 H 
ATOM     73  H18 GYN d           0.615  27.325  -5.875  0.00  0.00     0.033 H 
ATOM     74  H19 GYN d           0.905  26.690  -4.220  0.00  0.00     0.033 H 
ENDBRANCH   8  71
BRANCH   9  75
ATOM     75  O20 GYN d           1.846  29.774  -5.498  0.00  0.00    -0.391 OA
ATOM     76  H21 GYN d           1.842  30.668  -5.176  0.00  0.00     0.210 HD
ENDBRANCH   9  75
BRANCH  17  77
ATOM     77  C38 GYN d           1.304  23.495   0.121  0.00  0.00    -0.052 C 
ATOM     78  H34 GYN d           1.568  22.578  -0.426  0.00  0.00     0.033 H 
ATOM     79  H35 GYN d           0.223  23.502   0.323  0.00  0.00     0.033 H 
ATOM     80  H36 GYN d           1.856  23.527   1.072  0.00  0.00     0.033 H 
ENDBRANCH  17  77
BRANCH  14  81
ATOM     81  C49 GYN d           1.875  27.302   1.975  0.00  0.00    -0.070 C 
ATOM     82  H30 GYN d           1.202  26.645   2.545  0.00  0.00     0.028 H 
ATOM     83  H31 GYN d           1.307  28.160   1.587  0.00  0.00     0.028 H 
ATOM     84  H32 GYN d           2.680  27.663   2.633  0.00  0.00     0.028 H 
ENDBRANCH  14  81
TORSDOF 7
ENDMDL
