MODEL 1
REMARK VINA RESULT:     -11.6      0.000      0.000
REMARK  7 active torsions:
REMARK  status: ('A' for Active; 'I' for Inactive)
REMARK    1  A    between atoms: C2_4  and  C8_8 
REMARK    2  A    between atoms: C4_6  and  C7_7 
REMARK    3  A    between atoms: C13_9  and  C14_10 
REMARK    4  A    between atoms: C16_16  and  C19_17 
REMARK    5  A    between atoms: C17_18  and  O20_19 
REMARK    6  A    between atoms: C48_24  and  C49_25 
REMARK    7  A    between atoms: C36_28  and  C38_29 
ROOT
ATOM      1  C8  GYN d           5.013  25.420  -8.131  0.00  0.00    -0.048 C 
ATOM      2  C13 GYN d           4.106  26.145  -7.445  0.00  0.00    -0.070 C 
ATOM      3  C12 GYN d           3.785  25.909  -5.983  0.00  0.00    -0.003 C 
ATOM      4  C27 GYN d           4.846  25.046  -5.283  0.00  0.00     0.011 C 
ATOM      5  C10 GYN d           5.149  23.844  -6.180  0.00  0.00    -0.049 C 
ATOM      6  C9  GYN d           5.670  24.185  -7.568  0.00  0.00    -0.041 C 
ATOM      7  C15 GYN d           3.627  27.250  -5.283  0.00  0.00    -0.090 C 
ATOM      8  C16 GYN d           2.485  27.751  -4.760  0.00  0.00    -0.059 C 
ATOM      9  C17 GYN d           2.557  29.112  -4.110  0.00  0.00     0.057 C 
ATOM     10  C18 GYN d           2.033  29.070  -2.679  0.00  0.00    -0.035 C 
ATOM     11  C21 GYN d           3.090  28.726  -1.646  0.00  0.00    -0.038 C 
ATOM     12  C43 GYN d           2.857  27.362  -1.013  0.00  0.00     0.040 C 
ATOM     13  C47 GYN d           3.532  27.189   0.344  0.00  0.00    -0.035 C 
ATOM     14  C48 GYN d           2.622  26.245   1.112  0.00  0.00    -0.026 C 
ATOM     15  O43 GYN d           1.485  27.006  -0.785  0.00  0.00    -0.376 OA
ATOM     16  C37 GYN d           1.481  25.914   0.157  0.00  0.00     0.063 C 
ATOM     17  C36 GYN d           1.692  24.569  -0.507  0.00  0.00    -0.059 C 
ATOM     18  C35 GYN d           2.168  24.524  -1.769  0.00  0.00    -0.098 C 
ATOM     19  C34 GYN d           2.451  23.284  -2.598  0.00  0.00    -0.045 C 
ATOM     20  C33 GYN d           2.940  23.681  -4.000  0.00  0.00    -0.025 C 
ATOM     21  C32 GYN d           4.270  24.433  -4.010  0.00  0.00     0.016 C 
ATOM     22  N31 GYN d           4.933  24.521  -2.929  0.00  0.00    -0.298 NA
ATOM     23  C30 GYN d           6.339  24.834  -2.718  0.00  0.00     0.015 C 
ATOM     24  C46 GYN d           6.606  26.050  -3.592  0.00  0.00    -0.047 C 
ATOM     25  C28 GYN d           6.129  25.875  -5.031  0.00  0.00    -0.051 C 
ATOM     26  H11 GYN d           2.826  25.374  -5.926  0.00  0.00     0.054 H 
ATOM     27  H12 GYN d           4.221  23.266  -6.298  0.00  0.00     0.035 H 
ATOM     28  H13 GYN d           5.906  23.226  -5.675  0.00  0.00     0.035 H 
ATOM     29  H14 GYN d           6.755  24.356  -7.508  0.00  0.00     0.039 H 
ATOM     30  H15 GYN d           5.468  23.339  -8.240  0.00  0.00     0.039 H 
ATOM     31  H16 GYN d           4.520  27.866  -5.193  0.00  0.00     0.078 H 
ATOM     32  H20 GYN d           3.599  29.464  -4.108  0.00  0.00     0.090 H 
ATOM     33  H22 GYN d           1.236  28.314  -2.625  0.00  0.00     0.037 H 
ATOM     34  H23 GYN d           1.619  30.059  -2.434  0.00  0.00     0.037 H 
ATOM     35  H24 GYN d           3.073  29.490  -0.855  0.00  0.00     0.036 H 
ATOM     36  H25 GYN d           4.076  28.725  -2.134  0.00  0.00     0.036 H 
ATOM     37  H26 GYN d           3.286  26.625  -1.708  0.00  0.00     0.083 H 
ATOM     38  H27 GYN d           3.614  28.156   0.862  0.00  0.00     0.037 H 
ATOM     39  H28 GYN d           4.533  26.751   0.225  0.00  0.00     0.037 H 
ATOM     40  H29 GYN d           3.164  25.331   1.396  0.00  0.00     0.043 H 
ATOM     41  H33 GYN d           0.525  25.890   0.699  0.00  0.00     0.091 H 
ATOM     42  H37 GYN d           2.371  25.482  -2.245  0.00  0.00     0.077 H 
ATOM     43  H38 GYN d           1.529  22.691  -2.690  0.00  0.00     0.039 H 
ATOM     44  H39 GYN d           3.226  22.684  -2.100  0.00  0.00     0.039 H 
ATOM     45  H40 GYN d           2.177  24.324  -4.462  0.00  0.00     0.042 H 
ATOM     46  H41 GYN d           3.058  22.764  -4.596  0.00  0.00     0.042 H 
ATOM     47  H42 GYN d           6.974  23.989  -3.026  0.00  0.00     0.067 H 
ATOM     48  H43 GYN d           6.529  25.067  -1.660  0.00  0.00     0.067 H 
ATOM     49  H44 GYN d           7.690  26.241  -3.604  0.00  0.00     0.035 H 
ATOM     50  H45 GYN d           6.087  26.916  -3.154  0.00  0.00     0.035 H 
ATOM     51  H46 GYN d           5.953  26.880  -5.440  0.00  0.00     0.034 H 
ATOM     52  H47 GYN d           6.944  25.390  -5.587  0.00  0.00     0.034 H 
ENDROOT
BRANCH   1  53
ATOM     53  C2  GYN d           5.442  25.860  -9.504  0.00  0.00     0.071 C 
ATOM     54  O1  GYN d           6.437  26.878  -9.386  0.00  0.00    -0.311 OA
ATOM     55  C5  GYN d           7.452  26.558 -10.363  0.00  0.00     0.263 C 
ATOM     56  O6  GYN d           8.429  27.260 -10.535  0.00  0.00    -0.265 OA
ATOM     57  C4  GYN d           7.181  25.319 -11.138  0.00  0.00     0.029 C 
ATOM     58  C3  GYN d           6.028  24.717 -10.345  0.00  0.00    -0.025 C 
ATOM     59  H4  GYN d           6.857  25.558 -12.162  0.00  0.00     0.055 H 
ATOM     60  H2  GYN d           5.264  24.317 -11.028  0.00  0.00     0.038 H 
ATOM     61  H3  GYN d           6.394  23.912  -9.691  0.00  0.00     0.038 H 
ATOM     62  H1  GYN d           4.564  26.266 -10.027  0.00  0.00     0.091 H 
BRANCH  57  63
ATOM     63  C7  GYN d           8.414  24.436 -11.220  0.00  0.00    -0.064 C 
ATOM     64  H5  GYN d           9.093  24.675 -10.387  0.00  0.00     0.028 H 
ATOM     65  H6  GYN d           8.931  24.613 -12.175  0.00  0.00     0.028 H 
ATOM     66  H7  GYN d           8.114  23.379 -11.156  0.00  0.00     0.028 H 
ENDBRANCH  57  63
ENDBRANCH   1  53
BRANCH   2  67
ATOM     67  C14 GYN d           3.368  27.269  -8.141  0.00  0.00    -0.054 C 
ATOM     68  H8  GYN d           2.567  27.643  -7.486  0.00  0.00     0.033 H 
ATOM     69  H9  GYN d           2.930  26.896  -9.078  0.00  0.00     0.033 H 
ATOM     70  H10 GYN d           4.070  28.086  -8.365  0.00  0.00     0.033 H 
ENDBRANCH   2  67
BRANCH   8  71
ATOM     71  C19 GYN d           1.165  27.020  -4.818  0.00  0.00    -0.052 C 
ATOM     72  H17 GYN d           1.340  25.965  -5.075  0.00  0.00     0.033 H 
ATOM     73  H18 GYN d           0.523  27.481  -5.583  0.00  0.00     0.033 H 
ATOM     74  H19 GYN d           0.669  27.081  -3.838  0.00  0.00     0.033 H 
ENDBRANCH   8  71
BRANCH   9  75
ATOM     75  O20 GYN d           1.735  30.012  -4.869  0.00  0.00    -0.391 OA
ATOM     76  H21 GYN d           0.836  29.706  -4.855  0.00  0.00     0.210 HD
ENDBRANCH   9  75
BRANCH  17  77
ATOM     77  C38 GYN d           1.345  23.305   0.245  0.00  0.00    -0.052 C 
ATOM     78  H34 GYN d           2.264  22.849   0.641  0.00  0.00     0.033 H 
ATOM     79  H35 GYN d           0.851  22.597  -0.436  0.00  0.00     0.033 H 
ATOM     80  H36 GYN d           0.668  23.547   1.077  0.00  0.00     0.033 H 
ENDBRANCH  17  77
BRANCH  14  81
ATOM     81  C49 GYN d           2.091  26.937   2.368  0.00  0.00    -0.070 C 
ATOM     82  H30 GYN d           2.656  27.865   2.542  0.00  0.00     0.028 H 
ATOM     83  H31 GYN d           2.210  26.268   3.233  0.00  0.00     0.028 H 
ATOM     84  H32 GYN d           1.026  27.176   2.233  0.00  0.00     0.028 H 
ENDBRANCH  14  81
TORSDOF 7
ENDMDL
