MODEL 1
REMARK VINA RESULT:      -8.2      0.000      0.000
REMARK  10 active torsions:
REMARK  status: ('A' for Active; 'I' for Inactive)
REMARK    1  A    between atoms: C3_3  and  O3_4 
REMARK    2  A    between atoms: O3_4  and  C1X_29 
REMARK    3  A    between atoms: C10_11  and  C19_22 
REMARK    4  A    between atoms: C12_13  and  O12_14 
REMARK    5  A    between atoms: C13_15  and  C18_21 
REMARK    6  A    between atoms: C14_16  and  O14_17 
REMARK    7  A    between atoms: C17_20  and  C20_23 
REMARK    8  A    between atoms: C3X_31  and  O3X_32 
REMARK    9  A    between atoms: C4X_33  and  O4X_34 
REMARK   10  A    between atoms: C5X_35  and  C6X_37 
ROOT
ATOM      1  C1  DGX d         -12.454  30.866  29.489  0.00  0.00    -0.055 C 
ATOM      2  C2  DGX d         -13.809  31.216  28.881  0.00  0.00    -0.040 C 
ATOM      3  C3  DGX d         -14.933  31.034  29.893  0.00  0.00     0.042 C 
ATOM      4  C4  DGX d         -14.992  29.576  30.320  0.00  0.00    -0.037 C 
ATOM      5  C5  DGX d         -13.680  29.182  30.989  0.00  0.00    -0.044 C 
ATOM      6  C6  DGX d         -13.738  27.781  31.582  0.00  0.00    -0.060 C 
ATOM      7  C7  DGX d         -13.725  26.716  30.496  0.00  0.00    -0.058 C 
ATOM      8  C8  DGX d         -12.508  26.901  29.589  0.00  0.00    -0.019 C 
ATOM      9  C9  DGX d         -12.397  28.319  29.016  0.00  0.00    -0.038 C 
ATOM     10  C10 DGX d         -12.431  29.448  30.087  0.00  0.00    -0.036 C 
ATOM     11  C11 DGX d         -11.153  28.418  28.150  0.00  0.00    -0.036 C 
ATOM     12  C12 DGX d         -11.240  27.408  27.026  0.00  0.00     0.046 C 
ATOM     13  C13 DGX d         -11.228  25.944  27.551  0.00  0.00     0.021 C 
ATOM     14  C14 DGX d         -12.436  25.761  28.535  0.00  0.00     0.072 C 
ATOM     15  C15 DGX d         -13.647  25.601  27.595  0.00  0.00    -0.035 C 
ATOM     16  C16 DGX d         -13.132  25.026  26.276  0.00  0.00    -0.054 C 
ATOM     17  C17 DGX d         -11.600  25.092  26.297  0.00  0.00    -0.018 C 
ATOM     18  H1  DGX d         -11.687  30.931  28.703  0.00  0.00     0.034 H 
ATOM     19  H2  DGX d         -12.226  31.590  30.285  0.00  0.00     0.034 H 
ATOM     20  H3  DGX d         -13.995  30.562  28.017  0.00  0.00     0.036 H 
ATOM     21  H4  DGX d         -13.793  32.265  28.550  0.00  0.00     0.036 H 
ATOM     22  H5  DGX d         -15.888  31.328  29.435  0.00  0.00     0.083 H 
ATOM     23  H6  DGX d         -15.156  28.943  29.436  0.00  0.00     0.037 H 
ATOM     24  H7  DGX d         -15.821  29.436  31.030  0.00  0.00     0.037 H 
ATOM     25  H8  DGX d         -13.568  29.859  31.848  0.00  0.00     0.041 H 
ATOM     26  H9  DGX d         -14.661  27.679  32.170  0.00  0.00     0.033 H 
ATOM     27  H10 DGX d         -12.866  27.634  32.237  0.00  0.00     0.033 H 
ATOM     28  H11 DGX d         -14.642  26.799  29.895  0.00  0.00     0.033 H 
ATOM     29  H12 DGX d         -13.682  25.721  30.963  0.00  0.00     0.033 H 
ATOM     30  H13 DGX d         -11.623  26.775  30.230  0.00  0.00     0.045 H 
ATOM     31  H14 DGX d         -13.270  28.473  28.366  0.00  0.00     0.042 H 
ATOM     32  H15 DGX d         -10.262  28.211  28.762  0.00  0.00     0.037 H 
ATOM     33  H16 DGX d         -11.080  29.432  27.728  0.00  0.00     0.037 H 
ATOM     34  H17 DGX d         -12.207  27.564  26.525  0.00  0.00     0.084 H 
ATOM     35  H20 DGX d         -14.119  26.579  27.420  0.00  0.00     0.037 H 
ATOM     36  H21 DGX d         -14.382  24.915  28.042  0.00  0.00     0.037 H 
ATOM     37  H22 DGX d         -13.519  25.618  25.434  0.00  0.00     0.034 H 
ATOM     38  H23 DGX d         -13.460  23.981  26.171  0.00  0.00     0.034 H 
ATOM     39  H24 DGX d         -11.305  25.687  25.420  0.00  0.00     0.048 H 
ENDROOT
BRANCH   3  40
ATOM     40  O3  DGX d         -14.693  31.832  31.064  0.00  0.00    -0.356 OA
BRANCH  40  41
ATOM     41  C1X DGX d         -15.753  32.672  31.530  0.00  0.00     0.134 C 
ATOM     42  O5X DGX d         -16.922  32.326  30.803  0.00  0.00    -0.354 OA
ATOM     43  C5X DGX d         -18.089  33.060  31.112  0.00  0.00     0.065 C 
ATOM     44  C4X DGX d         -17.842  34.572  30.979  0.00  0.00     0.085 C 
ATOM     45  H41 DGX d         -18.441  32.834  32.130  0.00  0.00     0.086 H 
ATOM     46  C3X DGX d         -16.557  35.037  31.673  0.00  0.00     0.067 C 
ATOM     47  H39 DGX d         -17.769  34.818  29.909  0.00  0.00     0.090 H 
ATOM     48  C2X DGX d         -15.414  34.133  31.231  0.00  0.00     0.007 C 
ATOM     49  H37 DGX d         -16.335  36.064  31.350  0.00  0.00     0.087 H 
ATOM     50  H35 DGX d         -15.251  34.255  30.149  0.00  0.00     0.044 H 
ATOM     51  H36 DGX d         -14.499  34.412  31.773  0.00  0.00     0.044 H 
ATOM     52  H34 DGX d         -15.910  32.530  32.610  0.00  0.00     0.129 H 
BRANCH  43  53
ATOM     53  C6X DGX d         -19.079  32.572  30.071  0.00  0.00    -0.050 C 
ATOM     54  H42 DGX d         -19.320  33.394  29.381  0.00  0.00     0.031 H 
ATOM     55  H43 DGX d         -19.998  32.231  30.570  0.00  0.00     0.031 H 
ATOM     56  H44 DGX d         -18.637  31.738  29.508  0.00  0.00     0.031 H 
ENDBRANCH  43  53
BRANCH  44  57
ATOM     57  O4X DGX d         -18.953  35.278  31.553  0.00  0.00    -0.390 OA
ATOM     58  H40 DGX d         -18.697  36.175  31.734  0.00  0.00     0.210 HD
ENDBRANCH  44  57
BRANCH  46  59
ATOM     59  O3X DGX d         -16.714  35.045  33.109  0.00  0.00    -0.393 OA
ATOM     60  H38 DGX d         -16.968  34.179  33.403  0.00  0.00     0.210 HD
ENDBRANCH  46  59
ENDBRANCH  40  41
ENDBRANCH   3  40
BRANCH  10  61
ATOM     61  C19 DGX d         -11.125  29.487  30.902  0.00  0.00    -0.068 C 
ATOM     62  H28 DGX d         -11.363  29.490  31.976  0.00  0.00     0.028 H 
ATOM     63  H29 DGX d         -10.562  30.397  30.649  0.00  0.00     0.028 H 
ATOM     64  H30 DGX d         -10.518  28.602  30.663  0.00  0.00     0.028 H 
ENDBRANCH  10  61
BRANCH  14  65
ATOM     65  O14 DGX d         -12.350  24.503  29.255  0.00  0.00    -0.389 OA
ATOM     66  H19 DGX d         -12.507  23.785  28.654  0.00  0.00     0.210 HD
ENDBRANCH  14  65
BRANCH  12  67
ATOM     67  O12 DGX d         -10.217  27.628  26.050  0.00  0.00    -0.395 OA
ATOM     68  H18 DGX d         -10.047  26.818  25.583  0.00  0.00     0.210 HD
ENDBRANCH  12  67
BRANCH  13  69
ATOM     69  C18 DGX d          -9.867  25.633  28.214  0.00  0.00    -0.063 C 
ATOM     70  H25 DGX d          -9.625  24.569  28.073  0.00  0.00     0.028 H 
ATOM     71  H26 DGX d          -9.923  25.856  29.290  0.00  0.00     0.028 H 
ATOM     72  H27 DGX d          -9.084  26.250  27.752  0.00  0.00     0.028 H 
ENDBRANCH  13  69
BRANCH  17  73
ATOM     73  C20 DGX d         -10.871  23.795  26.123  0.00  0.00    -0.045 A 
ATOM     74  C22 DGX d          -9.744  23.566  25.434  0.00  0.00    -0.006 A 
ATOM     75  C23 DGX d          -9.341  22.187  25.635  0.00  0.00     0.283 A 
ATOM     76  H33 DGX d          -9.217  24.296  24.821  0.00  0.00     0.093 H 
ATOM     77  O21 DGX d         -10.195  21.599  26.473  0.00  0.00    -0.314 OA
ATOM     78  O23 DGX d          -8.363  21.577  25.219  0.00  0.00    -0.260 OA
ATOM     79  C21 DGX d         -11.255  22.531  26.787  0.00  0.00     0.050 A 
ATOM     80  H31 DGX d         -12.216  22.166  26.398  0.00  0.00     0.082 H 
ATOM     81  H32 DGX d         -11.331  22.675  27.875  0.00  0.00     0.082 H 
ENDBRANCH  17  73
TORSDOF 10
ENDMDL
MODEL 2
REMARK VINA RESULT:      -7.4      1.097      1.397
REMARK  10 active torsions:
REMARK  status: ('A' for Active; 'I' for Inactive)
REMARK    1  A    between atoms: C3_3  and  O3_4 
REMARK    2  A    between atoms: O3_4  and  C1X_29 
REMARK    3  A    between atoms: C10_11  and  C19_22 
REMARK    4  A    between atoms: C12_13  and  O12_14 
REMARK    5  A    between atoms: C13_15  and  C18_21 
REMARK    6  A    between atoms: C14_16  and  O14_17 
REMARK    7  A    between atoms: C17_20  and  C20_23 
REMARK    8  A    between atoms: C3X_31  and  O3X_32 
REMARK    9  A    between atoms: C4X_33  and  O4X_34 
REMARK   10  A    between atoms: C5X_35  and  C6X_37 
ROOT
ATOM      1  C1  DGX d         -11.594  31.607  29.313  0.00  0.00    -0.055 C 
ATOM      2  C2  DGX d         -12.834  32.127  28.590  0.00  0.00    -0.040 C 
ATOM      3  C3  DGX d         -14.036  32.181  29.523  0.00  0.00     0.042 C 
ATOM      4  C4  DGX d         -14.354  30.778  30.014  0.00  0.00    -0.037 C 
ATOM      5  C5  DGX d         -13.168  30.225  30.797  0.00  0.00    -0.044 C 
ATOM      6  C6  DGX d         -13.487  28.888  31.450  0.00  0.00    -0.060 C 
ATOM      7  C7  DGX d         -13.572  27.772  30.422  0.00  0.00    -0.058 C 
ATOM      8  C8  DGX d         -12.284  27.712  29.600  0.00  0.00    -0.019 C 
ATOM      9  C9  DGX d         -11.912  29.058  28.969  0.00  0.00    -0.038 C 
ATOM     10  C10 DGX d         -11.836  30.241  29.979  0.00  0.00    -0.036 C 
ATOM     11  C11 DGX d         -10.613  28.912  28.194  0.00  0.00    -0.036 C 
ATOM     12  C12 DGX d         -10.786  27.863  27.116  0.00  0.00     0.046 C 
ATOM     13  C13 DGX d         -11.042  26.449  27.710  0.00  0.00     0.021 C 
ATOM     14  C14 DGX d         -12.325  26.514  28.610  0.00  0.00     0.072 C 
ATOM     15  C15 DGX d         -13.482  26.488  27.591  0.00  0.00    -0.035 C 
ATOM     16  C16 DGX d         -12.979  25.763  26.344  0.00  0.00    -0.054 C 
ATOM     17  C17 DGX d         -11.461  25.591  26.475  0.00  0.00    -0.018 C 
ATOM     18  H1  DGX d         -10.777  31.506  28.584  0.00  0.00     0.034 H 
ATOM     19  H2  DGX d         -11.307  32.332  30.087  0.00  0.00     0.034 H 
ATOM     20  H3  DGX d         -13.064  31.459  27.747  0.00  0.00     0.036 H 
ATOM     21  H4  DGX d         -12.629  33.138  28.210  0.00  0.00     0.036 H 
ATOM     22  H5  DGX d         -14.900  32.592  28.981  0.00  0.00     0.083 H 
ATOM     23  H6  DGX d         -14.559  30.127  29.152  0.00  0.00     0.037 H 
ATOM     24  H7  DGX d         -15.240  30.811  30.666  0.00  0.00     0.037 H 
ATOM     25  H8  DGX d         -13.007  30.927  31.628  0.00  0.00     0.041 H 
ATOM     26  H9  DGX d         -14.451  28.966  31.973  0.00  0.00     0.033 H 
ATOM     27  H10 DGX d         -12.695  28.646  32.175  0.00  0.00     0.033 H 
ATOM     28  H11 DGX d         -14.423  27.960  29.750  0.00  0.00     0.033 H 
ATOM     29  H12 DGX d         -13.719  26.812  30.938  0.00  0.00     0.033 H 
ATOM     30  H13 DGX d         -11.475  27.488  30.310  0.00  0.00     0.045 H 
ATOM     31  H14 DGX d         -12.705  29.307  28.249  0.00  0.00     0.042 H 
ATOM     32  H15 DGX d          -9.809  28.606  28.879  0.00  0.00     0.037 H 
ATOM     33  H16 DGX d         -10.353  29.875  27.730  0.00  0.00     0.037 H 
ATOM     34  H17 DGX d         -11.681  28.136  26.538  0.00  0.00     0.084 H 
ATOM     35  H20 DGX d         -13.780  27.516  27.335  0.00  0.00     0.037 H 
ATOM     36  H21 DGX d         -14.344  25.952  28.015  0.00  0.00     0.037 H 
ATOM     37  H22 DGX d         -13.211  26.357  25.447  0.00  0.00     0.034 H 
ATOM     38  H23 DGX d         -13.461  24.777  26.265  0.00  0.00     0.034 H 
ATOM     39  H24 DGX d         -11.018  26.081  25.595  0.00  0.00     0.048 H 
ENDROOT
BRANCH   3  40
ATOM     40  O3  DGX d         -13.750  33.000  30.668  0.00  0.00    -0.356 OA
BRANCH  40  41
ATOM     41  C1X DGX d         -14.833  33.328  31.544  0.00  0.00     0.134 C 
ATOM     42  O5X DGX d         -15.260  32.124  32.163  0.00  0.00    -0.354 OA
ATOM     43  C5X DGX d         -16.342  32.236  33.065  0.00  0.00     0.065 C 
ATOM     44  C4X DGX d         -17.550  32.916  32.397  0.00  0.00     0.085 C 
ATOM     45  H41 DGX d         -16.053  32.803  33.962  0.00  0.00     0.086 H 
ATOM     46  C3X DGX d         -17.179  34.194  31.637  0.00  0.00     0.067 C 
ATOM     47  H39 DGX d         -17.998  32.206  31.686  0.00  0.00     0.090 H 
ATOM     48  C2X DGX d         -15.997  33.889  30.725  0.00  0.00     0.007 C 
ATOM     49  H37 DGX d         -18.033  34.492  31.012  0.00  0.00     0.087 H 
ATOM     50  H35 DGX d         -16.301  33.149  29.970  0.00  0.00     0.044 H 
ATOM     51  H36 DGX d         -15.676  34.814  30.224  0.00  0.00     0.044 H 
ATOM     52  H34 DGX d         -14.509  34.061  32.299  0.00  0.00     0.129 H 
BRANCH  43  53
ATOM     53  C6X DGX d         -16.646  30.790  33.406  0.00  0.00    -0.050 C 
ATOM     54  H42 DGX d         -15.722  30.288  33.729  0.00  0.00     0.031 H 
ATOM     55  H43 DGX d         -17.051  30.281  32.519  0.00  0.00     0.031 H 
ATOM     56  H44 DGX d         -17.387  30.753  34.219  0.00  0.00     0.031 H 
ENDBRANCH  43  53
BRANCH  44  57
ATOM     57  O4X DGX d         -18.515  33.249  33.407  0.00  0.00    -0.390 OA
ATOM     58  H40 DGX d         -19.342  32.828  33.204  0.00  0.00     0.210 HD
ENDBRANCH  44  57
BRANCH  46  59
ATOM     59  O3X DGX d         -16.892  35.278  32.548  0.00  0.00    -0.393 OA
ATOM     60  H38 DGX d         -17.697  35.737  32.755  0.00  0.00     0.210 HD
ENDBRANCH  46  59
ENDBRANCH  40  41
ENDBRANCH   3  40
BRANCH  10  61
ATOM     61  C19 DGX d         -10.598  30.125  30.885  0.00  0.00    -0.068 C 
ATOM     62  H28 DGX d         -10.812  29.431  31.712  0.00  0.00     0.028 H 
ATOM     63  H29 DGX d         -10.348  31.115  31.294  0.00  0.00     0.028 H 
ATOM     64  H30 DGX d          -9.748  29.745  30.299  0.00  0.00     0.028 H 
ENDBRANCH  10  61
BRANCH  14  65
ATOM     65  O14 DGX d         -12.487  25.303  29.394  0.00  0.00    -0.389 OA
ATOM     66  H19 DGX d         -11.658  24.843  29.439  0.00  0.00     0.210 HD
ENDBRANCH  14  65
BRANCH  12  67
ATOM     67  O12 DGX d          -9.679  27.863  26.210  0.00  0.00    -0.395 OA
ATOM     68  H18 DGX d          -9.997  27.992  25.324  0.00  0.00     0.210 HD
ENDBRANCH  12  67
BRANCH  13  69
ATOM     69  C18 DGX d          -9.794  25.969  28.487  0.00  0.00    -0.063 C 
ATOM     70  H25 DGX d          -9.306  26.831  28.965  0.00  0.00     0.028 H 
ATOM     71  H26 DGX d          -9.090  25.490  27.791  0.00  0.00     0.028 H 
ATOM     72  H27 DGX d         -10.097  25.246  29.258  0.00  0.00     0.028 H 
ENDBRANCH  13  69
BRANCH  17  73
ATOM     73  C20 DGX d         -10.937  24.189  26.418  0.00  0.00    -0.045 A 
ATOM     74  C22 DGX d          -9.842  23.740  25.790  0.00  0.00    -0.006 A 
ATOM     75  C23 DGX d          -9.662  22.335  26.100  0.00  0.00     0.283 A 
ATOM     76  H33 DGX d          -9.191  24.335  25.150  0.00  0.00     0.093 H 
ATOM     77  O21 DGX d         -10.620  21.947  26.944  0.00  0.00    -0.314 OA
ATOM     78  O23 DGX d          -8.781  21.554  25.766  0.00  0.00    -0.260 OA
ATOM     79  C21 DGX d         -11.530  23.051  27.153  0.00  0.00     0.050 A 
ATOM     80  H31 DGX d         -12.526  22.810  26.752  0.00  0.00     0.082 H 
ATOM     81  H32 DGX d         -11.614  23.284  28.225  0.00  0.00     0.082 H 
ENDBRANCH  17  73
TORSDOF 10
ENDMDL
MODEL 3
REMARK VINA RESULT:      -7.2      1.426      2.195
REMARK  10 active torsions:
REMARK  status: ('A' for Active; 'I' for Inactive)
REMARK    1  A    between atoms: C3_3  and  O3_4 
REMARK    2  A    between atoms: O3_4  and  C1X_29 
REMARK    3  A    between atoms: C10_11  and  C19_22 
REMARK    4  A    between atoms: C12_13  and  O12_14 
REMARK    5  A    between atoms: C13_15  and  C18_21 
REMARK    6  A    between atoms: C14_16  and  O14_17 
REMARK    7  A    between atoms: C17_20  and  C20_23 
REMARK    8  A    between atoms: C3X_31  and  O3X_32 
REMARK    9  A    between atoms: C4X_33  and  O4X_34 
REMARK   10  A    between atoms: C5X_35  and  C6X_37 
ROOT
ATOM      1  C1  DGX d         -13.618  30.151  29.665  0.00  0.00    -0.055 C 
ATOM      2  C2  DGX d         -14.986  30.323  29.011  0.00  0.00    -0.040 C 
ATOM      3  C3  DGX d         -16.107  29.921  29.961  0.00  0.00     0.042 C 
ATOM      4  C4  DGX d         -15.958  28.451  30.319  0.00  0.00    -0.037 C 
ATOM      5  C5  DGX d         -14.628  28.227  31.030  0.00  0.00    -0.044 C 
ATOM      6  C6  DGX d         -14.493  26.804  31.556  0.00  0.00    -0.060 C 
ATOM      7  C7  DGX d         -14.275  25.811  30.426  0.00  0.00    -0.058 C 
ATOM      8  C8  DGX d         -13.066  26.224  29.585  0.00  0.00    -0.019 C 
ATOM      9  C9  DGX d         -13.152  27.670  29.082  0.00  0.00    -0.038 C 
ATOM     10  C10 DGX d         -13.400  28.725  30.199  0.00  0.00    -0.036 C 
ATOM     11  C11 DGX d         -11.905  28.001  28.279  0.00  0.00    -0.036 C 
ATOM     12  C12 DGX d         -11.793  27.047  27.108  0.00  0.00     0.046 C 
ATOM     13  C13 DGX d         -11.577  25.577  27.567  0.00  0.00     0.021 C 
ATOM     14  C14 DGX d         -12.780  25.164  28.486  0.00  0.00     0.072 C 
ATOM     15  C15 DGX d         -13.915  24.870  27.485  0.00  0.00    -0.035 C 
ATOM     16  C16 DGX d         -13.267  24.448  26.167  0.00  0.00    -0.054 C 
ATOM     17  C17 DGX d         -11.765  24.744  26.261  0.00  0.00    -0.018 C 
ATOM     18  H1  DGX d         -12.840  30.372  28.919  0.00  0.00     0.034 H 
ATOM     19  H2  DGX d         -13.535  30.860  30.501  0.00  0.00     0.034 H 
ATOM     20  H3  DGX d         -15.036  29.692  28.111  0.00  0.00     0.036 H 
ATOM     21  H4  DGX d         -15.118  31.377  28.728  0.00  0.00     0.036 H 
ATOM     22  H5  DGX d         -17.078  30.090  29.473  0.00  0.00     0.083 H 
ATOM     23  H6  DGX d         -15.989  27.846  29.401  0.00  0.00     0.037 H 
ATOM     24  H7  DGX d         -16.783  28.151  30.983  0.00  0.00     0.037 H 
ATOM     25  H8  DGX d         -14.655  28.868  31.923  0.00  0.00     0.041 H 
ATOM     26  H9  DGX d         -15.412  26.534  32.097  0.00  0.00     0.033 H 
ATOM     27  H10 DGX d         -13.635  26.758  32.244  0.00  0.00     0.033 H 
ATOM     28  H11 DGX d         -15.170  25.785  29.788  0.00  0.00     0.033 H 
ATOM     29  H12 DGX d         -14.098  24.811  30.850  0.00  0.00     0.033 H 
ATOM     30  H13 DGX d         -12.198  26.201  30.260  0.00  0.00     0.045 H 
ATOM     31  H14 DGX d         -14.013  27.723  28.400  0.00  0.00     0.042 H 
ATOM     32  H15 DGX d         -11.018  27.900  28.921  0.00  0.00     0.037 H 
ATOM     33  H16 DGX d         -11.973  29.033  27.907  0.00  0.00     0.037 H 
ATOM     34  H17 DGX d         -12.752  27.080  26.571  0.00  0.00     0.084 H 
ATOM     35  H20 DGX d         -14.524  25.773  27.332  0.00  0.00     0.037 H 
ATOM     36  H21 DGX d         -14.552  24.059  27.866  0.00  0.00     0.037 H 
ATOM     37  H22 DGX d         -13.707  25.016  25.334  0.00  0.00     0.034 H 
ATOM     38  H23 DGX d         -13.426  23.372  26.000  0.00  0.00     0.034 H 
ATOM     39  H24 DGX d         -11.531  25.421  25.426  0.00  0.00     0.048 H 
ENDROOT
BRANCH   3  40
ATOM     40  O3  DGX d         -16.038  30.685  31.176  0.00  0.00    -0.356 OA
BRANCH  40  41
ATOM     41  C1X DGX d         -15.281  31.899  31.160  0.00  0.00     0.134 C 
ATOM     42  O5X DGX d         -14.225  31.755  32.099  0.00  0.00    -0.354 OA
ATOM     43  C5X DGX d         -13.362  32.865  32.243  0.00  0.00     0.065 C 
ATOM     44  C4X DGX d         -14.155  34.142  32.569  0.00  0.00     0.085 C 
ATOM     45  H41 DGX d         -12.768  33.025  31.332  0.00  0.00     0.086 H 
ATOM     46  C3X DGX d         -15.365  34.351  31.652  0.00  0.00     0.067 C 
ATOM     47  H39 DGX d         -14.513  34.073  33.606  0.00  0.00     0.090 H 
ATOM     48  C2X DGX d         -16.171  33.059  31.610  0.00  0.00     0.007 C 
ATOM     49  H37 DGX d         -15.997  35.143  32.079  0.00  0.00     0.087 H 
ATOM     50  H35 DGX d         -16.568  32.846  32.614  0.00  0.00     0.044 H 
ATOM     51  H36 DGX d         -17.005  33.173  30.902  0.00  0.00     0.044 H 
ATOM     52  H34 DGX d         -14.882  32.092  30.153  0.00  0.00     0.129 H 
BRANCH  43  53
ATOM     53  C6X DGX d         -12.480  32.456  33.407  0.00  0.00    -0.050 C 
ATOM     54  H42 DGX d         -12.577  31.374  33.577  0.00  0.00     0.031 H 
ATOM     55  H43 DGX d         -12.791  32.999  34.311  0.00  0.00     0.031 H 
ATOM     56  H44 DGX d         -11.432  32.698  33.176  0.00  0.00     0.031 H 
ENDBRANCH  43  53
BRANCH  44  57
ATOM     57  O4X DGX d         -13.284  35.277  32.441  0.00  0.00    -0.390 OA
ATOM     58  H40 DGX d         -12.386  34.977  32.360  0.00  0.00     0.210 HD
ENDBRANCH  44  57
BRANCH  46  59
ATOM     59  O3X DGX d         -14.953  34.773  30.332  0.00  0.00    -0.393 OA
ATOM     60  H38 DGX d         -14.382  34.114  29.955  0.00  0.00     0.210 HD
ENDBRANCH  46  59
ENDBRANCH  40  41
ENDBRANCH   3  40
BRANCH  10  61
ATOM     61  C19 DGX d         -12.149  28.919  31.074  0.00  0.00    -0.068 C 
ATOM     62  H28 DGX d         -12.421  29.469  31.987  0.00  0.00     0.028 H 
ATOM     63  H29 DGX d         -11.395  29.490  30.514  0.00  0.00     0.028 H 
ATOM     64  H30 DGX d         -11.736  27.937  31.347  0.00  0.00     0.028 H 
ENDBRANCH  10  61
BRANCH  14  65
ATOM     65  O14 DGX d         -12.529  23.898  29.152  0.00  0.00    -0.389 OA
ATOM     66  H19 DGX d         -12.610  24.015  30.091  0.00  0.00     0.210 HD
ENDBRANCH  14  65
BRANCH  12  67
ATOM     67  O12 DGX d         -10.779  27.469  26.191  0.00  0.00    -0.395 OA
ATOM     68  H18 DGX d         -10.825  26.940  25.404  0.00  0.00     0.210 HD
ENDBRANCH  12  67
BRANCH  13  69
ATOM     69  C18 DGX d         -10.211  25.442  28.278  0.00  0.00    -0.063 C 
ATOM     70  H25 DGX d         -10.362  25.439  29.368  0.00  0.00     0.028 H 
ATOM     71  H26 DGX d          -9.567  26.290  28.001  0.00  0.00     0.028 H 
ATOM     72  H27 DGX d          -9.730  24.502  27.973  0.00  0.00     0.028 H 
ENDBRANCH  13  69
BRANCH  17  73
ATOM     73  C20 DGX d         -10.839  23.583  26.063  0.00  0.00    -0.045 A 
ATOM     74  C22 DGX d          -9.674  23.558  25.401  0.00  0.00    -0.006 A 
ATOM     75  C23 DGX d          -9.066  22.251  25.565  0.00  0.00     0.283 A 
ATOM     76  H33 DGX d          -9.251  24.385  24.832  0.00  0.00     0.093 H 
ATOM     77  O21 DGX d          -9.839  21.505  26.355  0.00  0.00    -0.314 OA
ATOM     78  O23 DGX d          -7.996  21.816  25.159  0.00  0.00    -0.260 OA
ATOM     79  C21 DGX d         -11.038  22.249  26.670  0.00  0.00     0.050 A 
ATOM     80  H31 DGX d         -11.921  21.757  26.238  0.00  0.00     0.082 H 
ATOM     81  H32 DGX d         -11.163  22.335  27.759  0.00  0.00     0.082 H 
ENDBRANCH  17  73
TORSDOF 10
ENDMDL
MODEL 4
REMARK VINA RESULT:      -6.4      1.671     10.059
REMARK  10 active torsions:
REMARK  status: ('A' for Active; 'I' for Inactive)
REMARK    1  A    between atoms: C3_3  and  O3_4 
REMARK    2  A    between atoms: O3_4  and  C1X_29 
REMARK    3  A    between atoms: C10_11  and  C19_22 
REMARK    4  A    between atoms: C12_13  and  O12_14 
REMARK    5  A    between atoms: C13_15  and  C18_21 
REMARK    6  A    between atoms: C14_16  and  O14_17 
REMARK    7  A    between atoms: C17_20  and  C20_23 
REMARK    8  A    between atoms: C3X_31  and  O3X_32 
REMARK    9  A    between atoms: C4X_33  and  O4X_34 
REMARK   10  A    between atoms: C5X_35  and  C6X_37 
ROOT
ATOM      1  C1  DGX d         -13.097  27.756  28.135  0.00  0.00    -0.055 C 
ATOM      2  C2  DGX d         -11.712  28.394  28.060  0.00  0.00    -0.040 C 
ATOM      3  C3  DGX d         -10.853  27.993  29.252  0.00  0.00     0.042 C 
ATOM      4  C4  DGX d         -11.510  28.485  30.532  0.00  0.00    -0.037 C 
ATOM      5  C5  DGX d         -12.879  27.834  30.691  0.00  0.00    -0.044 C 
ATOM      6  C6  DGX d         -13.517  28.164  32.034  0.00  0.00    -0.060 C 
ATOM      7  C7  DGX d         -13.986  29.610  32.087  0.00  0.00    -0.058 C 
ATOM      8  C8  DGX d         -14.930  29.902  30.921  0.00  0.00    -0.019 C 
ATOM      9  C9  DGX d         -14.332  29.534  29.558  0.00  0.00    -0.038 C 
ATOM     10  C10 DGX d         -13.814  28.069  29.459  0.00  0.00    -0.036 C 
ATOM     11  C11 DGX d         -15.342  29.835  28.464  0.00  0.00    -0.036 C 
ATOM     12  C12 DGX d         -15.695  31.308  28.497  0.00  0.00     0.046 C 
ATOM     13  C13 DGX d         -16.421  31.707  29.813  0.00  0.00     0.021 C 
ATOM     14  C14 DGX d         -15.487  31.350  31.022  0.00  0.00     0.072 C 
ATOM     15  C15 DGX d         -14.457  32.496  31.034  0.00  0.00    -0.035 C 
ATOM     16  C16 DGX d         -15.125  33.721  30.411  0.00  0.00    -0.054 C 
ATOM     17  C17 DGX d         -16.443  33.268  29.771  0.00  0.00    -0.018 C 
ATOM     18  H1  DGX d         -13.707  28.138  27.303  0.00  0.00     0.034 H 
ATOM     19  H2  DGX d         -12.989  26.666  28.040  0.00  0.00     0.034 H 
ATOM     20  H3  DGX d         -11.821  29.488  28.049  0.00  0.00     0.036 H 
ATOM     21  H4  DGX d         -11.216  28.066  27.135  0.00  0.00     0.036 H 
ATOM     22  H5  DGX d          -9.854  28.439  29.149  0.00  0.00     0.083 H 
ATOM     23  H6  DGX d         -11.627  29.577  30.485  0.00  0.00     0.037 H 
ATOM     24  H7  DGX d         -10.877  28.220  31.392  0.00  0.00     0.037 H 
ATOM     25  H8  DGX d         -12.694  26.751  30.713  0.00  0.00     0.041 H 
ATOM     26  H9  DGX d         -12.778  27.998  32.831  0.00  0.00     0.033 H 
ATOM     27  H10 DGX d         -14.381  27.502  32.191  0.00  0.00     0.033 H 
ATOM     28  H11 DGX d         -13.113  30.276  32.025  0.00  0.00     0.033 H 
ATOM     29  H12 DGX d         -14.514  29.785  33.036  0.00  0.00     0.033 H 
ATOM     30  H13 DGX d         -15.796  29.236  31.050  0.00  0.00     0.045 H 
ATOM     31  H14 DGX d         -13.462  30.189  29.400  0.00  0.00     0.042 H 
ATOM     32  H15 DGX d         -16.250  29.236  28.628  0.00  0.00     0.037 H 
ATOM     33  H16 DGX d         -14.909  29.584  27.485  0.00  0.00     0.037 H 
ATOM     34  H17 DGX d         -14.749  31.868  28.467  0.00  0.00     0.084 H 
ATOM     35  H20 DGX d         -13.571  32.212  30.447  0.00  0.00     0.037 H 
ATOM     36  H21 DGX d         -14.154  32.719  32.068  0.00  0.00     0.037 H 
ATOM     37  H22 DGX d         -14.469  34.156  29.643  0.00  0.00     0.034 H 
ATOM     38  H23 DGX d         -15.327  34.473  31.189  0.00  0.00     0.034 H 
ATOM     39  H24 DGX d         -16.384  33.549  28.709  0.00  0.00     0.048 H 
ENDROOT
BRANCH   3  40
ATOM     40  O3  DGX d         -10.737  26.562  29.332  0.00  0.00    -0.356 OA
BRANCH  40  41
ATOM     41  C1X DGX d         -10.992  25.803  28.146  0.00  0.00     0.134 C 
ATOM     42  O5X DGX d         -12.139  25.003  28.391  0.00  0.00    -0.354 OA
ATOM     43  C5X DGX d         -12.550  24.161  27.333  0.00  0.00     0.065 C 
ATOM     44  C4X DGX d         -11.397  23.257  26.867  0.00  0.00     0.085 C 
ATOM     45  H41 DGX d         -12.923  24.749  26.481  0.00  0.00     0.086 H 
ATOM     46  C3X DGX d         -10.086  24.019  26.643  0.00  0.00     0.067 C 
ATOM     47  H39 DGX d         -11.226  22.489  27.635  0.00  0.00     0.090 H 
ATOM     48  C2X DGX d          -9.807  24.875  27.872  0.00  0.00     0.007 C 
ATOM     49  H37 DGX d          -9.270  23.290  26.533  0.00  0.00     0.087 H 
ATOM     50  H35 DGX d          -9.648  24.220  28.742  0.00  0.00     0.044 H 
ATOM     51  H36 DGX d          -8.905  25.479  27.698  0.00  0.00     0.044 H 
ATOM     52  H34 DGX d         -11.159  26.472  27.289  0.00  0.00     0.129 H 
BRANCH  43  53
ATOM     53  C6X DGX d         -13.664  23.347  27.964  0.00  0.00    -0.050 C 
ATOM     54  H42 DGX d         -14.324  22.956  27.176  0.00  0.00     0.031 H 
ATOM     55  H43 DGX d         -14.244  23.986  28.646  0.00  0.00     0.031 H 
ATOM     56  H44 DGX d         -13.230  22.509  28.529  0.00  0.00     0.031 H 
ENDBRANCH  43  53
BRANCH  44  57
ATOM     57  O4X DGX d         -11.771  22.622  25.634  0.00  0.00    -0.390 OA
ATOM     58  H40 DGX d         -11.189  22.910  24.941  0.00  0.00     0.210 HD
ENDBRANCH  44  57
BRANCH  46  59
ATOM     59  O3X DGX d         -10.142  24.811  25.436  0.00  0.00    -0.393 OA
ATOM     60  H38 DGX d          -9.289  24.812  25.019  0.00  0.00     0.210 HD
ENDBRANCH  46  59
ENDBRANCH  40  41
ENDBRANCH   3  40
BRANCH  10  61
ATOM     61  C19 DGX d         -14.979  27.065  29.416  0.00  0.00    -0.068 C 
ATOM     62  H28 DGX d         -15.008  26.579  28.429  0.00  0.00     0.028 H 
ATOM     63  H29 DGX d         -15.926  27.594  29.592  0.00  0.00     0.028 H 
ATOM     64  H30 DGX d         -14.835  26.302  30.196  0.00  0.00     0.028 H 
ENDBRANCH  10  61
BRANCH  14  65
ATOM     65  O14 DGX d         -16.189  31.462  32.288  0.00  0.00    -0.389 OA
ATOM     66  H19 DGX d         -17.104  31.241  32.161  0.00  0.00     0.210 HD
ENDBRANCH  14  65
BRANCH  12  67
ATOM     67  O12 DGX d         -16.449  31.686  27.342  0.00  0.00    -0.395 OA
ATOM     68  H18 DGX d         -16.198  31.138  26.607  0.00  0.00     0.210 HD
ENDBRANCH  12  67
BRANCH  13  69
ATOM     69  C18 DGX d         -17.795  31.002  29.893  0.00  0.00    -0.063 C 
ATOM     70  H25 DGX d         -17.750  30.195  30.638  0.00  0.00     0.028 H 
ATOM     71  H26 DGX d         -18.048  30.580  28.910  0.00  0.00     0.028 H 
ATOM     72  H27 DGX d         -18.564  31.731  30.188  0.00  0.00     0.028 H 
ENDBRANCH  13  69
BRANCH  17  73
ATOM     73  C20 DGX d         -17.691  33.937  30.259  0.00  0.00    -0.045 A 
ATOM     74  C22 DGX d         -18.118  34.071  31.522  0.00  0.00    -0.006 A 
ATOM     75  C23 DGX d         -19.318  34.886  31.531  0.00  0.00     0.283 A 
ATOM     76  H33 DGX d         -17.642  33.638  32.401  0.00  0.00     0.093 H 
ATOM     77  O21 DGX d         -19.591  35.276  30.285  0.00  0.00    -0.314 OA
ATOM     78  O23 DGX d         -20.006  35.278  32.465  0.00  0.00    -0.260 OA
ATOM     79  C21 DGX d         -18.643  34.658  29.386  0.00  0.00     0.050 A 
ATOM     80  H31 DGX d         -19.154  33.957  28.709  0.00  0.00     0.082 H 
ATOM     81  H32 DGX d         -18.119  35.422  28.793  0.00  0.00     0.082 H 
ENDBRANCH  17  73
TORSDOF 10
ENDMDL
MODEL 5
REMARK VINA RESULT:      -6.3      1.587      3.160
REMARK  10 active torsions:
REMARK  status: ('A' for Active; 'I' for Inactive)
REMARK    1  A    between atoms: C3_3  and  O3_4 
REMARK    2  A    between atoms: O3_4  and  C1X_29 
REMARK    3  A    between atoms: C10_11  and  C19_22 
REMARK    4  A    between atoms: C12_13  and  O12_14 
REMARK    5  A    between atoms: C13_15  and  C18_21 
REMARK    6  A    between atoms: C14_16  and  O14_17 
REMARK    7  A    between atoms: C17_20  and  C20_23 
REMARK    8  A    between atoms: C3X_31  and  O3X_32 
REMARK    9  A    between atoms: C4X_33  and  O4X_34 
REMARK   10  A    between atoms: C5X_35  and  C6X_37 
ROOT
ATOM      1  C1  DGX d         -13.533  30.733  30.924  0.00  0.00    -0.055 C 
ATOM      2  C2  DGX d         -12.432  31.148  31.896  0.00  0.00    -0.040 C 
ATOM      3  C3  DGX d         -11.728  32.414  31.426  0.00  0.00     0.042 C 
ATOM      4  C4  DGX d         -11.069  32.152  30.081  0.00  0.00    -0.037 C 
ATOM      5  C5  DGX d         -12.131  31.787  29.050  0.00  0.00    -0.044 C 
ATOM      6  C6  DGX d         -11.551  31.671  27.647  0.00  0.00    -0.060 C 
ATOM      7  C7  DGX d         -10.703  30.418  27.498  0.00  0.00    -0.058 C 
ATOM      8  C8  DGX d         -11.516  29.181  27.883  0.00  0.00    -0.019 C 
ATOM      9  C9  DGX d         -12.153  29.291  29.272  0.00  0.00    -0.038 C 
ATOM     10  C10 DGX d         -13.013  30.571  29.485  0.00  0.00    -0.036 C 
ATOM     11  C11 DGX d         -12.956  28.034  29.562  0.00  0.00    -0.036 C 
ATOM     12  C12 DGX d         -12.042  26.828  29.502  0.00  0.00     0.046 C 
ATOM     13  C13 DGX d         -11.467  26.599  28.075  0.00  0.00     0.021 C 
ATOM     14  C14 DGX d         -10.686  27.889  27.643  0.00  0.00     0.072 C 
ATOM     15  C15 DGX d          -9.345  27.769  28.395  0.00  0.00    -0.035 C 
ATOM     16  C16 DGX d          -9.083  26.282  28.631  0.00  0.00    -0.054 C 
ATOM     17  C17 DGX d         -10.364  25.513  28.284  0.00  0.00    -0.018 C 
ATOM     18  H1  DGX d         -13.956  29.774  31.258  0.00  0.00     0.034 H 
ATOM     19  H2  DGX d         -14.319  31.503  30.931  0.00  0.00     0.034 H 
ATOM     20  H3  DGX d         -11.695  30.335  31.972  0.00  0.00     0.036 H 
ATOM     21  H4  DGX d         -12.878  31.332  32.884  0.00  0.00     0.036 H 
ATOM     22  H5  DGX d         -10.967  32.704  32.165  0.00  0.00     0.083 H 
ATOM     23  H6  DGX d         -10.355  31.322  30.180  0.00  0.00     0.037 H 
ATOM     24  H7  DGX d         -10.537  33.057  29.753  0.00  0.00     0.037 H 
ATOM     25  H8  DGX d         -12.818  32.646  29.013  0.00  0.00     0.041 H 
ATOM     26  H9  DGX d         -10.925  32.552  27.445  0.00  0.00     0.033 H 
ATOM     27  H10 DGX d         -12.377  31.632  26.921  0.00  0.00     0.033 H 
ATOM     28  H11 DGX d          -9.824  30.494  28.154  0.00  0.00     0.033 H 
ATOM     29  H12 DGX d         -10.373  30.325  26.453  0.00  0.00     0.033 H 
ATOM     30  H13 DGX d         -12.358  29.134  27.177  0.00  0.00     0.045 H 
ATOM     31  H14 DGX d         -11.331  29.337  30.002  0.00  0.00     0.042 H 
ATOM     32  H15 DGX d         -13.754  27.928  28.812  0.00  0.00     0.037 H 
ATOM     33  H16 DGX d         -13.403  28.107  30.564  0.00  0.00     0.037 H 
ATOM     34  H17 DGX d         -11.189  27.035  30.165  0.00  0.00     0.084 H 
ATOM     35  H20 DGX d          -9.406  28.297  29.357  0.00  0.00     0.037 H 
ATOM     36  H21 DGX d          -8.535  28.201  27.790  0.00  0.00     0.037 H 
ATOM     37  H22 DGX d          -8.819  26.111  29.685  0.00  0.00     0.034 H 
ATOM     38  H23 DGX d          -8.258  25.942  27.987  0.00  0.00     0.034 H 
ATOM     39  H24 DGX d         -10.646  24.958  29.191  0.00  0.00     0.048 H 
ENDROOT
BRANCH   3  40
ATOM     40  O3  DGX d         -12.672  33.485  31.259  0.00  0.00    -0.356 OA
BRANCH  40  41
ATOM     41  C1X DGX d         -14.051  33.208  31.520  0.00  0.00     0.134 C 
ATOM     42  O5X DGX d         -14.796  33.654  30.396  0.00  0.00    -0.354 OA
ATOM     43  C5X DGX d         -16.196  33.479  30.466  0.00  0.00     0.065 C 
ATOM     44  C4X DGX d         -16.770  34.124  31.739  0.00  0.00     0.085 C 
ATOM     45  H41 DGX d         -16.464  32.413  30.443  0.00  0.00     0.086 H 
ATOM     46  C3X DGX d         -15.988  33.761  33.005  0.00  0.00     0.067 C 
ATOM     47  H39 DGX d         -16.744  35.217  31.615  0.00  0.00     0.090 H 
ATOM     48  C2X DGX d         -14.506  34.002  32.746  0.00  0.00     0.007 C 
ATOM     49  H37 DGX d         -16.312  34.423  33.821  0.00  0.00     0.087 H 
ATOM     50  H35 DGX d         -14.339  35.075  32.568  0.00  0.00     0.044 H 
ATOM     51  H36 DGX d         -13.926  33.681  33.623  0.00  0.00     0.044 H 
ATOM     52  H34 DGX d         -14.203  32.131  31.685  0.00  0.00     0.129 H 
BRANCH  43  53
ATOM     53  C6X DGX d         -16.686  34.192  29.220  0.00  0.00    -0.050 C 
ATOM     54  H42 DGX d         -17.066  33.453  28.500  0.00  0.00     0.031 H 
ATOM     55  H43 DGX d         -15.855  34.753  28.768  0.00  0.00     0.031 H 
ATOM     56  H44 DGX d         -17.493  34.889  29.491  0.00  0.00     0.031 H 
ENDBRANCH  43  53
BRANCH  44  57
ATOM     57  O4X DGX d         -18.132  33.697  31.904  0.00  0.00    -0.390 OA
ATOM     58  H40 DGX d         -18.232  33.287  32.755  0.00  0.00     0.210 HD
ENDBRANCH  44  57
BRANCH  46  59
ATOM     59  O3X DGX d         -16.250  32.398  33.407  0.00  0.00    -0.393 OA
ATOM     60  H38 DGX d         -15.496  32.056  33.873  0.00  0.00     0.210 HD
ENDBRANCH  46  59
ENDBRANCH  40  41
ENDBRANCH   3  40
BRANCH  10  61
ATOM     61  C19 DGX d         -14.331  30.498  28.694  0.00  0.00    -0.068 C 
ATOM     62  H28 DGX d         -14.274  31.168  27.824  0.00  0.00     0.028 H 
ATOM     63  H29 DGX d         -15.164  30.808  29.341  0.00  0.00     0.028 H 
ATOM     64  H30 DGX d         -14.497  29.466  28.352  0.00  0.00     0.028 H 
ENDBRANCH  10  61
BRANCH  14  65
ATOM     65  O14 DGX d         -10.333  27.850  26.235  0.00  0.00    -0.389 OA
ATOM     66  H19 DGX d         -10.070  28.717  25.952  0.00  0.00     0.210 HD
ENDBRANCH  14  65
BRANCH  12  67
ATOM     67  O12 DGX d         -12.695  25.658  30.003  0.00  0.00    -0.395 OA
ATOM     68  H18 DGX d         -12.323  24.888  29.590  0.00  0.00     0.210 HD
ENDBRANCH  12  67
BRANCH  13  69
ATOM     69  C18 DGX d         -12.609  26.238  27.098  0.00  0.00    -0.063 C 
ATOM     70  H25 DGX d         -13.570  26.256  27.633  0.00  0.00     0.028 H 
ATOM     71  H26 DGX d         -12.437  25.232  26.688  0.00  0.00     0.028 H 
ATOM     72  H27 DGX d         -12.633  26.969  26.277  0.00  0.00     0.028 H 
ENDBRANCH  13  69
BRANCH  17  73
ATOM     73  C20 DGX d         -10.249  24.458  27.228  0.00  0.00    -0.045 A 
ATOM     74  C22 DGX d         -10.708  23.199  27.263  0.00  0.00    -0.006 A 
ATOM     75  C23 DGX d         -10.468  22.574  25.977  0.00  0.00     0.283 A 
ATOM     76  H33 DGX d         -11.186  22.723  28.119  0.00  0.00     0.093 H 
ATOM     77  O21 DGX d          -9.904  23.461  25.157  0.00  0.00    -0.314 OA
ATOM     78  O23 DGX d         -10.756  21.455  25.571  0.00  0.00    -0.260 OA
ATOM     79  C21 DGX d          -9.657  24.682  25.891  0.00  0.00     0.050 A 
ATOM     80  H31 DGX d          -8.577  24.870  25.974  0.00  0.00     0.082 H 
ATOM     81  H32 DGX d         -10.141  25.536  25.394  0.00  0.00     0.082 H 
ENDBRANCH  17  73
TORSDOF 10
ENDMDL
MODEL 6
REMARK VINA RESULT:      -5.6      1.726      9.986
REMARK  10 active torsions:
REMARK  status: ('A' for Active; 'I' for Inactive)
REMARK    1  A    between atoms: C3_3  and  O3_4 
REMARK    2  A    between atoms: O3_4  and  C1X_29 
REMARK    3  A    between atoms: C10_11  and  C19_22 
REMARK    4  A    between atoms: C12_13  and  O12_14 
REMARK    5  A    between atoms: C13_15  and  C18_21 
REMARK    6  A    between atoms: C14_16  and  O14_17 
REMARK    7  A    between atoms: C17_20  and  C20_23 
REMARK    8  A    between atoms: C3X_31  and  O3X_32 
REMARK    9  A    between atoms: C4X_33  and  O4X_34 
REMARK   10  A    between atoms: C5X_35  and  C6X_37 
ROOT
ATOM      1  C1  DGX d          -9.705  29.727  28.744  0.00  0.00    -0.055 C 
ATOM      2  C2  DGX d          -9.389  28.525  29.629  0.00  0.00    -0.040 C 
ATOM      3  C3  DGX d          -9.937  27.237  29.029  0.00  0.00     0.042 C 
ATOM      4  C4  DGX d         -11.450  27.336  28.924  0.00  0.00    -0.037 C 
ATOM      5  C5  DGX d         -11.827  28.489  28.001  0.00  0.00    -0.044 C 
ATOM      6  C6  DGX d         -13.324  28.539  27.728  0.00  0.00    -0.060 C 
ATOM      7  C7  DGX d         -14.097  29.012  28.949  0.00  0.00    -0.058 C 
ATOM      8  C8  DGX d         -13.560  30.362  29.424  0.00  0.00    -0.019 C 
ATOM      9  C9  DGX d         -12.045  30.356  29.660  0.00  0.00    -0.038 C 
ATOM     10  C10 DGX d         -11.209  29.855  28.446  0.00  0.00    -0.036 C 
ATOM     11  C11 DGX d         -11.597  31.737  30.105  0.00  0.00    -0.036 C 
ATOM     12  C12 DGX d         -12.321  32.114  31.380  0.00  0.00     0.046 C 
ATOM     13  C13 DGX d         -13.854  32.258  31.164  0.00  0.00     0.021 C 
ATOM     14  C14 DGX d         -14.405  30.897  30.613  0.00  0.00     0.072 C 
ATOM     15  C15 DGX d         -14.488  30.006  31.869  0.00  0.00    -0.035 C 
ATOM     16  C16 DGX d         -14.673  30.927  33.074  0.00  0.00    -0.054 C 
ATOM     17  C17 DGX d         -14.429  32.369  32.611  0.00  0.00    -0.018 C 
ATOM     18  H1  DGX d          -9.365  30.640  29.254  0.00  0.00     0.034 H 
ATOM     19  H2  DGX d          -9.164  29.616  27.792  0.00  0.00     0.034 H 
ATOM     20  H3  DGX d          -9.842  28.679  30.619  0.00  0.00     0.036 H 
ATOM     21  H4  DGX d          -8.298  28.434  29.735  0.00  0.00     0.036 H 
ATOM     22  H5  DGX d          -9.662  26.388  29.673  0.00  0.00     0.083 H 
ATOM     23  H6  DGX d         -11.875  27.513  29.922  0.00  0.00     0.037 H 
ATOM     24  H7  DGX d         -11.850  26.395  28.516  0.00  0.00     0.037 H 
ATOM     25  H8  DGX d         -11.360  28.261  27.032  0.00  0.00     0.041 H 
ATOM     26  H9  DGX d         -13.671  27.532  27.454  0.00  0.00     0.033 H 
ATOM     27  H10 DGX d         -13.513  29.232  26.895  0.00  0.00     0.033 H 
ATOM     28  H11 DGX d         -13.988  28.273  29.756  0.00  0.00     0.033 H 
ATOM     29  H12 DGX d         -15.161  29.115  28.689  0.00  0.00     0.033 H 
ATOM     30  H13 DGX d         -13.724  31.068  28.596  0.00  0.00     0.045 H 
ATOM     31  H14 DGX d         -11.851  29.658  30.488  0.00  0.00     0.042 H 
ATOM     32  H15 DGX d         -11.831  32.470  29.319  0.00  0.00     0.037 H 
ATOM     33  H16 DGX d         -10.512  31.730  30.287  0.00  0.00     0.037 H 
ATOM     34  H17 DGX d         -12.171  31.291  32.094  0.00  0.00     0.084 H 
ATOM     35  H20 DGX d         -13.561  29.425  31.979  0.00  0.00     0.037 H 
ATOM     36  H21 DGX d         -15.343  29.319  31.787  0.00  0.00     0.037 H 
ATOM     37  H22 DGX d         -13.953  30.662  33.862  0.00  0.00     0.034 H 
ATOM     38  H23 DGX d         -15.697  30.829  33.465  0.00  0.00     0.034 H 
ATOM     39  H24 DGX d         -13.615  32.760  33.238  0.00  0.00     0.048 H 
ENDROOT
BRANCH   3  40
ATOM     40  O3  DGX d          -9.410  27.031  27.708  0.00  0.00    -0.356 OA
BRANCH  40  41
ATOM     41  C1X DGX d          -9.854  25.881  26.982  0.00  0.00     0.134 C 
ATOM     42  O5X DGX d         -11.260  25.993  26.823  0.00  0.00    -0.354 OA
ATOM     43  C5X DGX d         -11.896  24.936  26.134  0.00  0.00     0.065 C 
ATOM     44  C4X DGX d         -11.570  23.580  26.782  0.00  0.00     0.085 C 
ATOM     45  H41 DGX d         -11.600  24.918  25.075  0.00  0.00     0.086 H 
ATOM     46  C3X DGX d         -10.075  23.390  27.063  0.00  0.00     0.067 C 
ATOM     47  H39 DGX d         -12.115  23.510  27.735  0.00  0.00     0.090 H 
ATOM     48  C2X DGX d          -9.560  24.620  27.798  0.00  0.00     0.007 C 
ATOM     49  H37 DGX d          -9.949  22.514  27.716  0.00  0.00     0.087 H 
ATOM     50  H35 DGX d         -10.059  24.695  28.775  0.00  0.00     0.044 H 
ATOM     51  H36 DGX d          -8.474  24.528  27.945  0.00  0.00     0.044 H 
ATOM     52  H34 DGX d          -9.354  25.827  26.003  0.00  0.00     0.129 H 
BRANCH  43  53
ATOM     53  C6X DGX d         -13.367  25.275  26.284  0.00  0.00    -0.050 C 
ATOM     54  H42 DGX d         -13.493  26.016  27.088  0.00  0.00     0.031 H 
ATOM     55  H43 DGX d         -13.930  24.364  26.534  0.00  0.00     0.031 H 
ATOM     56  H44 DGX d         -13.746  25.691  25.339  0.00  0.00     0.031 H 
ENDBRANCH  43  53
BRANCH  44  57
ATOM     57  O4X DGX d         -12.008  22.528  25.907  0.00  0.00    -0.390 OA
ATOM     58  H40 DGX d         -12.933  22.367  26.047  0.00  0.00     0.210 HD
ENDBRANCH  44  57
BRANCH  46  59
ATOM     59  O3X DGX d          -9.342  23.144  25.842  0.00  0.00    -0.393 OA
ATOM     60  H38 DGX d          -9.953  23.052  25.121  0.00  0.00     0.210 HD
ENDBRANCH  46  59
ENDBRANCH  40  41
ENDBRANCH   3  40
BRANCH  10  61
ATOM     61  C19 DGX d         -11.203  30.888  27.305  0.00  0.00    -0.068 C 
ATOM     62  H28 DGX d         -10.175  31.021  26.936  0.00  0.00     0.028 H 
ATOM     63  H29 DGX d         -11.584  31.849  27.679  0.00  0.00     0.028 H 
ATOM     64  H30 DGX d         -11.845  30.533  26.486  0.00  0.00     0.028 H 
ENDBRANCH  10  61
BRANCH  14  65
ATOM     65  O14 DGX d         -15.777  31.026  30.153  0.00  0.00    -0.389 OA
ATOM     66  H19 DGX d         -16.363  30.650  30.798  0.00  0.00     0.210 HD
ENDBRANCH  14  65
BRANCH  12  67
ATOM     67  O12 DGX d         -11.757  33.291  31.968  0.00  0.00    -0.395 OA
ATOM     68  H18 DGX d         -10.815  33.191  32.032  0.00  0.00     0.210 HD
ENDBRANCH  12  67
BRANCH  13  69
ATOM     69  C18 DGX d         -14.144  33.445  30.217  0.00  0.00    -0.063 C 
ATOM     70  H25 DGX d         -14.997  34.022  30.602  0.00  0.00     0.028 H 
ATOM     71  H26 DGX d         -14.383  33.064  29.213  0.00  0.00     0.028 H 
ATOM     72  H27 DGX d         -13.258  34.094  30.160  0.00  0.00     0.028 H 
ENDBRANCH  13  69
BRANCH  17  73
ATOM     73  C20 DGX d         -15.551  33.339  32.817  0.00  0.00    -0.045 A 
ATOM     74  C22 DGX d         -16.868  33.089  32.837  0.00  0.00    -0.006 A 
ATOM     75  C23 DGX d         -17.575  34.308  33.180  0.00  0.00     0.283 A 
ATOM     76  H33 DGX d         -17.333  32.126  32.628  0.00  0.00     0.093 H 
ATOM     77  O21 DGX d         -16.689  35.278  33.407  0.00  0.00    -0.314 OA
ATOM     78  O23 DGX d         -18.771  34.515  33.338  0.00  0.00    -0.260 OA
ATOM     79  C21 DGX d         -15.363  34.772  33.129  0.00  0.00     0.050 A 
ATOM     80  H31 DGX d         -14.921  35.300  32.272  0.00  0.00     0.082 H 
ATOM     81  H32 DGX d         -14.712  34.893  34.008  0.00  0.00     0.082 H 
ENDBRANCH  17  73
TORSDOF 10
ENDMDL
