MODEL 1
REMARK VINA RESULT:     -11.2      0.000      0.000
REMARK  17 active torsions:
REMARK  status: ('A' for Active; 'I' for Inactive)
REMARK    1  A    between atoms: C1_2  and  C2_4 
REMARK       I    between atoms: N2_13  and  C1_2 
REMARK    2  A    between atoms: C11_14  and  N2_13 
REMARK    3  A    between atoms: C12_15  and  C11_14 
REMARK    4  A    between atoms: C11_14  and  C13_17 
REMARK       I    between atoms: N4_24  and  C12_15 
REMARK    5  A    between atoms: C13_17  and  C14_18 
REMARK       I    between atoms: C14_18  and  N3_20 
REMARK    6  A    between atoms: C15_21  and  O4_22 
REMARK    7  A    between atoms: C16_23  and  C15_21 
REMARK    8  A    between atoms: C15_21  and  C24_33 
REMARK    9  A    between atoms: C16_23  and  N4_24 
REMARK   10  A    between atoms: C16_23  and  C17_25 
REMARK   11  A    between atoms: C17_25  and  C18_26 
REMARK   12  A    between atoms: C24_33  and  N5_32 
REMARK   13  A    between atoms: C25_34  and  C26_35 
REMARK       I    between atoms: C26_35  and  N6_45 
REMARK   14  A    between atoms: N6_45  and  C35_46 
REMARK   15  A    between atoms: C35_46  and  C36_47 
REMARK   16  A    between atoms: C35_46  and  C37_48 
REMARK   17  A    between atoms: C35_46  and  C38_49 
ROOT
ATOM      1  C15 ROC d          15.695  24.226  18.008  0.00  0.00     0.078 C 
ATOM      2  H13 ROC d          15.764  24.507  16.947  0.00  0.00     0.088 H 
ENDROOT
BRANCH   1   3
ATOM      3  O4  ROC d          15.321  25.386  18.740  0.00  0.00    -0.392 OA
ATOM      4  H14 ROC d          14.458  25.670  18.462  0.00  0.00     0.210 HD
ENDBRANCH   1   3
BRANCH   1   5
ATOM      5  C16 ROC d          17.087  23.746  18.440  0.00  0.00     0.042 C 
ATOM      6  H15 ROC d          17.305  22.794  17.934  0.00  0.00     0.077 H 
BRANCH   5   7
ATOM      7  N4  ROC d          18.070  24.764  18.040  0.00  0.00    -0.352 N 
ATOM      8  C12 ROC d          18.792  24.647  16.929  0.00  0.00     0.241 C 
ATOM      9  O2  ROC d          18.768  23.703  16.106  0.00  0.00    -0.271 OA
ATOM     10  H16 ROC d          18.201  25.568  18.621  0.00  0.00     0.163 HD
BRANCH   8  11
ATOM     11  C11 ROC d          19.769  25.785  16.648  0.00  0.00     0.097 C 
ATOM     12  H8  ROC d          19.291  26.740  16.910  0.00  0.00     0.088 H 
BRANCH  11  13
ATOM     13  N2  ROC d          20.903  25.600  17.501  0.00  0.00    -0.342 N 
ATOM     14  C1  ROC d          21.324  26.514  18.397  0.00  0.00     0.271 C 
ATOM     15  O1  ROC d          20.847  27.663  18.485  0.00  0.00    -0.266 OA
ATOM     16  H7  ROC d          21.412  24.743  17.427  0.00  0.00     0.163 HD
BRANCH  14  17
ATOM     17  C2  ROC d          22.416  25.995  19.244  0.00  0.00     0.125 C 
ATOM     18  N1  ROC d          23.038  24.836  18.921  0.00  0.00    -0.243 NA
ATOM     19  C10 ROC d          24.037  24.323  19.683  0.00  0.00     0.068 A 
ATOM     20  C5  ROC d          24.451  25.009  20.827  0.00  0.00    -0.007 A 
ATOM     21  C9R ROC d          24.702  23.141  19.332  0.00  0.00    -0.054 A 
ATOM     22  C4  ROC d          23.797  26.181  21.176  0.00  0.00    -0.068 C 
ATOM     23  C6  ROC d          25.439  24.446  21.610  0.00  0.00    -0.071 A 
ATOM     24  C3  ROC d          22.817  26.761  20.360  0.00  0.00    -0.049 C 
ATOM     25  H2  ROC d          24.052  26.666  22.112  0.00  0.00     0.085 H 
ATOM     26  H1  ROC d          22.393  27.736  20.572  0.00  0.00     0.087 H 
ATOM     27  C7  ROC d          26.113  23.298  21.250  0.00  0.00    -0.082 A 
ATOM     28  H3  ROC d          25.695  24.927  22.547  0.00  0.00     0.084 H 
ATOM     29  C8  ROC d          25.669  22.639  20.133  0.00  0.00    -0.081 A 
ATOM     30  H4  ROC d          26.956  22.933  21.826  0.00  0.00     0.083 H 
ATOM     31  H5  ROC d          26.111  21.682  19.882  0.00  0.00     0.083 H 
ATOM     32  H6  ROC d          24.440  22.627  18.415  0.00  0.00     0.087 H 
ENDBRANCH  14  17
ENDBRANCH  11  13
BRANCH  11  33
ATOM     33  C13 ROC d          20.118  25.831  15.182  0.00  0.00     0.036 C 
ATOM     34  H9  ROC d          19.238  26.131  14.594  0.00  0.00     0.051 H 
ATOM     35  H10 ROC d          20.465  24.843  14.845  0.00  0.00     0.051 H 
BRANCH  33  36
ATOM     36  C14 ROC d          21.191  26.822  15.021  0.00  0.00     0.217 C 
ATOM     37  O3  ROC d          22.397  26.646  14.798  0.00  0.00    -0.274 OA
ATOM     38  N3  ROC d          20.852  28.042  15.159  0.00  0.00    -0.370 N 
ATOM     39  H11 ROC d          21.535  28.766  15.061  0.00  0.00     0.159 HD
ATOM     40  H12 ROC d          19.902  28.277  15.364  0.00  0.00     0.159 HD
ENDBRANCH  33  36
ENDBRANCH  11  33
ENDBRANCH   8  11
ENDBRANCH   5   7
BRANCH   5  41
ATOM     41  C17 ROC d          17.223  23.549  19.946  0.00  0.00    -0.020 C 
ATOM     42  H17 ROC d          16.606  22.687  20.238  0.00  0.00     0.043 H 
ATOM     43  H18 ROC d          16.849  24.454  20.447  0.00  0.00     0.043 H 
BRANCH  41  44
ATOM     44  C18 ROC d          18.632  23.299  20.416  0.00  0.00    -0.056 A 
ATOM     45  C19 ROC d          19.271  22.112  20.126  0.00  0.00    -0.077 A 
ATOM     46  C21 ROC d          20.529  21.866  20.586  0.00  0.00    -0.082 A 
ATOM     47  H19 ROC d          18.765  21.365  19.524  0.00  0.00     0.084 H 
ATOM     48  C23 ROC d          21.186  22.822  21.312  0.00  0.00    -0.083 A 
ATOM     49  H21 ROC d          21.009  20.917  20.378  0.00  0.00     0.083 H 
ATOM     50  C22 ROC d          20.587  24.017  21.563  0.00  0.00    -0.082 A 
ATOM     51  H23 ROC d          22.184  22.627  21.688  0.00  0.00     0.083 H 
ATOM     52  C20 ROC d          19.306  24.248  21.133  0.00  0.00    -0.077 A 
ATOM     53  H22 ROC d          21.122  24.788  22.104  0.00  0.00     0.083 H 
ATOM     54  H20 ROC d          18.824  25.191  21.361  0.00  0.00     0.084 H 
ENDBRANCH  41  44
ENDBRANCH   5  41
ENDBRANCH   1   5
BRANCH   1  55
ATOM     55  C24 ROC d          14.634  23.161  18.117  0.00  0.00     0.110 C 
ATOM     56  H25 ROC d          13.666  23.641  18.320  0.00  0.00     0.080 H 
ATOM     57  H26 ROC d          14.889  22.486  18.947  0.00  0.00     0.080 H 
BRANCH  55  58
ATOM     58  N5  ROC d          14.531  22.393  16.905  0.00  0.00    -0.055 N 
ATOM     59  C25 ROC d          13.862  21.061  17.097  0.00  0.00     0.180 C 
ATOM     60  C27 ROC d          13.802  20.336  15.796  0.00  0.00    -0.026 C 
ATOM     61  H27 ROC d          12.841  21.225  17.470  0.00  0.00     0.100 H 
ATOM     62  C28 ROC d          13.119  21.096  14.698  0.00  0.00    -0.047 C 
ATOM     63  H28 ROC d          13.258  19.393  15.952  0.00  0.00     0.037 H 
ATOM     64  H29 ROC d          14.831  20.117  15.475  0.00  0.00     0.037 H 
ATOM     65  C29 ROC d          13.120  20.377  13.355  0.00  0.00    -0.061 C 
ATOM     66  C33 ROC d          13.816  22.461  14.605  0.00  0.00    -0.027 C 
ATOM     67  H30 ROC d          12.069  21.253  14.986  0.00  0.00     0.040 H 
ATOM     68  C30 ROC d          14.465  20.362  12.664  0.00  0.00    -0.065 C 
ATOM     69  H31 ROC d          12.398  20.878  12.694  0.00  0.00     0.033 H 
ATOM     70  H32 ROC d          12.805  19.337  13.520  0.00  0.00     0.033 H 
ATOM     71  C31 ROC d          15.008  21.755  12.508  0.00  0.00    -0.065 C 
ATOM     72  H33 ROC d          14.353  19.906  11.670  0.00  0.00     0.033 H 
ATOM     73  H34 ROC d          15.170  19.767  13.263  0.00  0.00     0.033 H 
ATOM     74  C32 ROC d          15.125  22.348  13.905  0.00  0.00    -0.060 C 
ATOM     75  H35 ROC d          14.322  22.361  11.897  0.00  0.00     0.033 H 
ATOM     76  H36 ROC d          15.997  21.723  12.027  0.00  0.00     0.033 H 
ATOM     77  H37 ROC d          15.564  23.353  13.822  0.00  0.00     0.033 H 
ATOM     78  H38 ROC d          15.787  21.706  14.503  0.00  0.00     0.033 H 
ATOM     79  C34 ROC d          13.838  23.163  15.902  0.00  0.00     0.088 C 
ATOM     80  H39 ROC d          13.187  23.082  13.951  0.00  0.00     0.043 H 
ATOM     81  H40 ROC d          14.349  24.129  15.776  0.00  0.00     0.076 H 
ATOM     82  H41 ROC d          12.803  23.336  16.233  0.00  0.00     0.076 H 
ATOM     83  H24 ROC d          15.466  22.216  16.576  0.00  0.00     0.281 HD
BRANCH  59  84
ATOM     84  C26 ROC d          14.635  20.196  18.106  0.00  0.00     0.249 C 
ATOM     85  O5  ROC d          15.834  19.996  17.996  0.00  0.00    -0.271 OA
ATOM     86  N6  ROC d          13.889  19.720  19.135  0.00  0.00    -0.351 N 
ATOM     87  H42 ROC d          12.939  20.025  19.200  0.00  0.00     0.163 HD
BRANCH  86  88
ATOM     88  C35 ROC d          14.374  18.800  20.147  0.00  0.00     0.022 C 
BRANCH  88  89
ATOM     89  C36 ROC d          13.219  18.404  21.040  0.00  0.00    -0.054 C 
ATOM     90  H43 ROC d          13.575  17.707  21.812  0.00  0.00     0.030 H 
ATOM     91  H44 ROC d          12.439  17.917  20.437  0.00  0.00     0.030 H 
ATOM     92  H45 ROC d          12.804  19.302  21.522  0.00  0.00     0.030 H 
ENDBRANCH  88  89
BRANCH  88  93
ATOM     93  C37 ROC d          15.392  19.510  21.003  0.00  0.00    -0.054 C 
ATOM     94  H46 ROC d          15.766  18.820  21.774  0.00  0.00     0.030 H 
ATOM     95  H47 ROC d          14.922  20.379  21.486  0.00  0.00     0.030 H 
ATOM     96  H48 ROC d          16.230  19.846  20.375  0.00  0.00     0.030 H 
ENDBRANCH  88  93
BRANCH  88  97
ATOM     97  C38 ROC d          14.931  17.584  19.461  0.00  0.00    -0.054 C 
ATOM     98  H49 ROC d          15.303  16.876  20.217  0.00  0.00     0.030 H 
ATOM     99  H50 ROC d          15.757  17.883  18.799  0.00  0.00     0.030 H 
ATOM    100  H51 ROC d          14.139  17.104  18.867  0.00  0.00     0.030 H 
ENDBRANCH  88  97
ENDBRANCH  86  88
ENDBRANCH  59  84
ENDBRANCH  55  58
ENDBRANCH   1  55
TORSDOF 17
ENDMDL
