MODEL 1
REMARK VINA RESULT:     -10.2      0.000      0.000
REMARK  17 active torsions:
REMARK  status: ('A' for Active; 'I' for Inactive)
REMARK    1  A    between atoms: C1_2  and  C2_4 
REMARK       I    between atoms: N2_13  and  C1_2 
REMARK    2  A    between atoms: C11_14  and  N2_13 
REMARK    3  A    between atoms: C12_15  and  C11_14 
REMARK    4  A    between atoms: C11_14  and  C13_17 
REMARK       I    between atoms: N4_24  and  C12_15 
REMARK    5  A    between atoms: C13_17  and  C14_18 
REMARK       I    between atoms: C14_18  and  N3_20 
REMARK    6  A    between atoms: C15_21  and  O4_22 
REMARK    7  A    between atoms: C16_23  and  C15_21 
REMARK    8  A    between atoms: C15_21  and  C24_33 
REMARK    9  A    between atoms: C16_23  and  N4_24 
REMARK   10  A    between atoms: C16_23  and  C17_25 
REMARK   11  A    between atoms: C17_25  and  C18_26 
REMARK   12  A    between atoms: C24_33  and  N5_32 
REMARK   13  A    between atoms: C25_34  and  C26_35 
REMARK       I    between atoms: C26_35  and  N6_45 
REMARK   14  A    between atoms: N6_45  and  C35_46 
REMARK   15  A    between atoms: C35_46  and  C36_47 
REMARK   16  A    between atoms: C35_46  and  C37_48 
REMARK   17  A    between atoms: C35_46  and  C38_49 
ROOT
ATOM      1  C15 ROC d          16.682  22.777  16.614  0.00  0.00     0.078 C 
ATOM      2  H13 ROC d          17.690  23.020  16.981  0.00  0.00     0.088 H 
ENDROOT
BRANCH   1   3
ATOM      3  O4  ROC d          16.683  21.410  16.221  0.00  0.00    -0.392 OA
ATOM      4  H14 ROC d          16.707  21.353  15.273  0.00  0.00     0.210 HD
ENDBRANCH   1   3
BRANCH   1   5
ATOM      5  C16 ROC d          16.411  23.681  15.406  0.00  0.00     0.042 C 
ATOM      6  H15 ROC d          15.575  24.354  15.649  0.00  0.00     0.077 H 
BRANCH   5   7
ATOM      7  N4  ROC d          17.625  24.466  15.134  0.00  0.00    -0.352 N 
ATOM      8  C12 ROC d          18.152  25.282  16.043  0.00  0.00     0.241 C 
ATOM      9  O2  ROC d          17.718  25.517  17.194  0.00  0.00    -0.271 OA
ATOM     10  H16 ROC d          18.068  24.383  14.242  0.00  0.00     0.163 HD
BRANCH   8  11
ATOM     11  C11 ROC d          19.413  26.027  15.615  0.00  0.00     0.097 C 
ATOM     12  H8  ROC d          19.155  27.076  15.407  0.00  0.00     0.088 H 
BRANCH  11  13
ATOM     13  N2  ROC d          20.327  25.997  16.714  0.00  0.00    -0.342 N 
ATOM     14  C1  ROC d          21.076  27.051  17.096  0.00  0.00     0.271 C 
ATOM     15  O1  ROC d          21.142  28.118  16.454  0.00  0.00    -0.266 OA
ATOM     16  H7  ROC d          20.416  25.144  17.229  0.00  0.00     0.163 HD
BRANCH  14  17
ATOM     17  C2  ROC d          21.808  26.782  18.350  0.00  0.00     0.125 C 
ATOM     18  N1  ROC d          22.925  26.017  18.336  0.00  0.00    -0.243 NA
ATOM     19  C10 ROC d          23.616  25.738  19.472  0.00  0.00     0.068 A 
ATOM     20  C5  ROC d          23.177  26.262  20.690  0.00  0.00    -0.007 A 
ATOM     21  C9R ROC d          24.789  24.973  19.454  0.00  0.00    -0.054 A 
ATOM     22  C4  ROC d          22.018  27.024  20.710  0.00  0.00    -0.068 C 
ATOM     23  C6  ROC d          23.871  25.931  21.836  0.00  0.00    -0.071 A 
ATOM     24  C3  ROC d          21.338  27.381  19.539  0.00  0.00    -0.049 C 
ATOM     25  H2  ROC d          21.624  27.353  21.665  0.00  0.00     0.085 H 
ATOM     26  H1  ROC d          20.504  28.072  19.545  0.00  0.00     0.087 H 
ATOM     27  C7  ROC d          25.041  25.202  21.816  0.00  0.00    -0.082 A 
ATOM     28  H3  ROC d          23.479  26.258  22.792  0.00  0.00     0.084 H 
ATOM     29  C8  ROC d          25.433  24.686  20.608  0.00  0.00    -0.081 A 
ATOM     30  H4  ROC d          25.624  25.043  22.716  0.00  0.00     0.083 H 
ATOM     31  H5  ROC d          26.291  24.024  20.577  0.00  0.00     0.083 H 
ATOM     32  H6  ROC d          25.182  24.610  18.511  0.00  0.00     0.087 H 
ENDBRANCH  14  17
ENDBRANCH  11  13
BRANCH  11  33
ATOM     33  C13 ROC d          19.973  25.432  14.347  0.00  0.00     0.036 C 
ATOM     34  H9  ROC d          19.275  25.596  13.513  0.00  0.00     0.051 H 
ATOM     35  H10 ROC d          20.140  24.353  14.480  0.00  0.00     0.051 H 
BRANCH  33  36
ATOM     36  C14 ROC d          21.249  26.108  14.075  0.00  0.00     0.217 C 
ATOM     37  O3  ROC d          22.406  25.715  14.280  0.00  0.00    -0.274 OA
ATOM     38  N3  ROC d          21.168  27.282  13.586  0.00  0.00    -0.370 N 
ATOM     39  H11 ROC d          22.000  27.795  13.378  0.00  0.00     0.159 HD
ATOM     40  H12 ROC d          20.272  27.689  13.410  0.00  0.00     0.159 HD
ENDBRANCH  33  36
ENDBRANCH  11  33
ENDBRANCH   8  11
ENDBRANCH   5   7
BRANCH   5  41
ATOM     41  C17 ROC d          16.073  22.912  14.132  0.00  0.00    -0.020 C 
ATOM     42  H17 ROC d          16.803  22.097  14.019  0.00  0.00     0.043 H 
ATOM     43  H18 ROC d          16.159  23.603  13.280  0.00  0.00     0.043 H 
BRANCH  41  44
ATOM     44  C18 ROC d          14.692  22.313  14.114  0.00  0.00    -0.056 A 
ATOM     45  C19 ROC d          14.435  21.158  13.405  0.00  0.00    -0.077 A 
ATOM     46  C21 ROC d          13.177  20.638  13.352  0.00  0.00    -0.082 A 
ATOM     47  H19 ROC d          15.244  20.658  12.883  0.00  0.00     0.084 H 
ATOM     48  C23 ROC d          12.162  21.242  14.042  0.00  0.00    -0.083 A 
ATOM     49  H21 ROC d          12.981  19.747  12.766  0.00  0.00     0.083 H 
ATOM     50  C22 ROC d          12.412  22.353  14.786  0.00  0.00    -0.082 A 
ATOM     51  H23 ROC d          11.158  20.836  13.995  0.00  0.00     0.083 H 
ATOM     52  C20 ROC d          13.669  22.898  14.807  0.00  0.00    -0.077 A 
ATOM     53  H22 ROC d          11.616  22.808  15.363  0.00  0.00     0.083 H 
ATOM     54  H20 ROC d          13.855  23.800  15.378  0.00  0.00     0.084 H 
ENDBRANCH  41  44
ENDBRANCH   5  41
ENDBRANCH   1   5
BRANCH   1  55
ATOM     55  C24 ROC d          15.727  23.002  17.758  0.00  0.00     0.110 C 
ATOM     56  H25 ROC d          14.766  23.355  17.356  0.00  0.00     0.080 H 
ATOM     57  H26 ROC d          16.146  23.765  18.429  0.00  0.00     0.080 H 
BRANCH  55  58
ATOM     58  N5  ROC d          15.504  21.793  18.506  0.00  0.00    -0.055 N 
ATOM     59  C25 ROC d          16.211  21.772  19.831  0.00  0.00     0.180 C 
ATOM     60  C27 ROC d          15.929  20.487  20.532  0.00  0.00    -0.026 C 
ATOM     61  H27 ROC d          15.846  22.609  20.443  0.00  0.00     0.100 H 
ATOM     62  C28 ROC d          14.470  20.200  20.727  0.00  0.00    -0.047 C 
ATOM     63  H28 ROC d          16.408  20.522  21.521  0.00  0.00     0.037 H 
ATOM     64  H29 ROC d          16.365  19.669  19.941  0.00  0.00     0.037 H 
ATOM     65  C29 ROC d          14.188  18.855  21.384  0.00  0.00    -0.061 C 
ATOM     66  C33 ROC d          13.811  20.299  19.344  0.00  0.00    -0.027 C 
ATOM     67  H30 ROC d          14.047  20.979  21.378  0.00  0.00     0.040 H 
ATOM     68  C30 ROC d          14.418  17.665  20.479  0.00  0.00    -0.065 C 
ATOM     69  H31 ROC d          13.137  18.842  21.709  0.00  0.00     0.033 H 
ATOM     70  H32 ROC d          14.844  18.754  22.261  0.00  0.00     0.033 H 
ATOM     71  C31 ROC d          13.633  17.795  19.204  0.00  0.00    -0.065 C 
ATOM     72  H33 ROC d          14.105  16.750  21.002  0.00  0.00     0.033 H 
ATOM     73  H34 ROC d          15.489  17.601  20.236  0.00  0.00     0.033 H 
ATOM     74  C32 ROC d          14.086  19.083  18.530  0.00  0.00    -0.060 C 
ATOM     75  H35 ROC d          12.556  17.845  19.428  0.00  0.00     0.033 H 
ATOM     76  H36 ROC d          13.832  16.935  18.548  0.00  0.00     0.033 H 
ATOM     77  H37 ROC d          13.559  19.179  17.570  0.00  0.00     0.033 H 
ATOM     78  H38 ROC d          15.169  19.021  18.350  0.00  0.00     0.033 H 
ATOM     79  C34 ROC d          14.088  21.589  18.687  0.00  0.00     0.088 C 
ATOM     80  H39 ROC d          12.725  20.292  19.521  0.00  0.00     0.043 H 
ATOM     81  H40 ROC d          13.596  21.604  17.704  0.00  0.00     0.076 H 
ATOM     82  H41 ROC d          13.687  22.402  19.311  0.00  0.00     0.076 H 
ATOM     83  H24 ROC d          15.864  21.027  17.959  0.00  0.00     0.281 HD
BRANCH  59  84
ATOM     84  C26 ROC d          17.732  21.908  19.648  0.00  0.00     0.249 C 
ATOM     85  O5  ROC d          18.343  21.238  18.831  0.00  0.00    -0.271 OA
ATOM     86  N6  ROC d          18.316  22.852  20.428  0.00  0.00    -0.351 N 
ATOM     87  H42 ROC d          17.719  23.425  20.988  0.00  0.00     0.163 HD
BRANCH  86  88
ATOM     88  C35 ROC d          19.746  23.086  20.505  0.00  0.00     0.022 C 
BRANCH  88  89
ATOM     89  C36 ROC d          20.016  24.099  21.597  0.00  0.00    -0.054 C 
ATOM     90  H43 ROC d          19.578  25.067  21.315  0.00  0.00     0.030 H 
ATOM     91  H44 ROC d          21.102  24.212  21.732  0.00  0.00     0.030 H 
ATOM     92  H45 ROC d          19.564  23.753  22.538  0.00  0.00     0.030 H 
ENDBRANCH  88  89
BRANCH  88  93
ATOM     93  C37 ROC d          20.213  23.684  19.203  0.00  0.00    -0.054 C 
ATOM     94  H46 ROC d          19.880  23.050  18.368  0.00  0.00     0.030 H 
ATOM     95  H47 ROC d          21.312  23.745  19.200  0.00  0.00     0.030 H 
ATOM     96  H48 ROC d          19.789  24.692  19.089  0.00  0.00     0.030 H 
ENDBRANCH  88  93
BRANCH  88  97
ATOM     97  C38 ROC d          20.427  21.788  20.832  0.00  0.00    -0.054 C 
ATOM     98  H49 ROC d          19.705  20.962  20.743  0.00  0.00     0.030 H 
ATOM     99  H50 ROC d          20.815  21.826  21.861  0.00  0.00     0.030 H 
ATOM    100  H51 ROC d          21.260  21.624  20.132  0.00  0.00     0.030 H 
ENDBRANCH  88  97
ENDBRANCH  86  88
ENDBRANCH  59  84
ENDBRANCH  55  58
ENDBRANCH   1  55
TORSDOF 17
ENDMDL
MODEL 2
REMARK VINA RESULT:      -9.2      1.124      3.748
REMARK  17 active torsions:
REMARK  status: ('A' for Active; 'I' for Inactive)
REMARK    1  A    between atoms: C1_2  and  C2_4 
REMARK       I    between atoms: N2_13  and  C1_2 
REMARK    2  A    between atoms: C11_14  and  N2_13 
REMARK    3  A    between atoms: C12_15  and  C11_14 
REMARK    4  A    between atoms: C11_14  and  C13_17 
REMARK       I    between atoms: N4_24  and  C12_15 
REMARK    5  A    between atoms: C13_17  and  C14_18 
REMARK       I    between atoms: C14_18  and  N3_20 
REMARK    6  A    between atoms: C15_21  and  O4_22 
REMARK    7  A    between atoms: C16_23  and  C15_21 
REMARK    8  A    between atoms: C15_21  and  C24_33 
REMARK    9  A    between atoms: C16_23  and  N4_24 
REMARK   10  A    between atoms: C16_23  and  C17_25 
REMARK   11  A    between atoms: C17_25  and  C18_26 
REMARK   12  A    between atoms: C24_33  and  N5_32 
REMARK   13  A    between atoms: C25_34  and  C26_35 
REMARK       I    between atoms: C26_35  and  N6_45 
REMARK   14  A    between atoms: N6_45  and  C35_46 
REMARK   15  A    between atoms: C35_46  and  C36_47 
REMARK   16  A    between atoms: C35_46  and  C37_48 
REMARK   17  A    between atoms: C35_46  and  C38_49 
ROOT
ATOM      1  C15 ROC d          16.686  22.378  16.411  0.00  0.00     0.078 C 
ATOM      2  H13 ROC d          17.777  22.403  16.545  0.00  0.00     0.088 H 
ENDROOT
BRANCH   1   3
ATOM      3  O4  ROC d          16.337  21.078  15.953  0.00  0.00    -0.392 OA
ATOM      4  H14 ROC d          16.940  20.811  15.269  0.00  0.00     0.210 HD
ENDBRANCH   1   3
BRANCH   1   5
ATOM      5  C16 ROC d          16.335  23.431  15.353  0.00  0.00     0.042 C 
ATOM      6  H15 ROC d          15.529  24.069  15.744  0.00  0.00     0.077 H 
BRANCH   5   7
ATOM      7  N4  ROC d          17.535  24.240  15.092  0.00  0.00    -0.352 N 
ATOM      8  C12 ROC d          17.900  25.236  15.895  0.00  0.00     0.241 C 
ATOM      9  O2  ROC d          17.310  25.634  16.925  0.00  0.00    -0.271 OA
ATOM     10  H16 ROC d          18.093  24.037  14.287  0.00  0.00     0.163 HD
BRANCH   8  11
ATOM     11  C11 ROC d          19.168  25.983  15.493  0.00  0.00     0.097 C 
ATOM     12  H8  ROC d          18.933  27.051  15.381  0.00  0.00     0.088 H 
BRANCH  11  13
ATOM     13  N2  ROC d          20.111  25.838  16.558  0.00  0.00    -0.342 N 
ATOM     14  C1  ROC d          20.835  26.857  17.063  0.00  0.00     0.271 C 
ATOM     15  O1  ROC d          20.850  28.002  16.569  0.00  0.00    -0.266 OA
ATOM     16  H7  ROC d          20.241  24.928  16.951  0.00  0.00     0.163 HD
BRANCH  14  17
ATOM     17  C2  ROC d          21.608  26.449  18.253  0.00  0.00     0.125 C 
ATOM     18  N1  ROC d          22.259  25.261  18.269  0.00  0.00    -0.243 NA
ATOM     19  C10 ROC d          22.969  24.848  19.351  0.00  0.00     0.068 A 
ATOM     20  C5  ROC d          23.045  25.670  20.477  0.00  0.00    -0.007 A 
ATOM     21  C9R ROC d          23.668  23.635  19.356  0.00  0.00    -0.054 A 
ATOM     22  C4  ROC d          22.356  26.874  20.474  0.00  0.00    -0.068 C 
ATOM     23  C6  ROC d          23.736  25.211  21.580  0.00  0.00    -0.071 A 
ATOM     24  C3  ROC d          21.683  27.347  19.339  0.00  0.00    -0.049 C 
ATOM     25  H2  ROC d          22.337  27.470  21.380  0.00  0.00     0.085 H 
ATOM     26  H1  ROC d          21.248  28.338  19.299  0.00  0.00     0.087 H 
ATOM     27  C7  ROC d          24.448  24.030  21.576  0.00  0.00    -0.082 A 
ATOM     28  H3  ROC d          23.717  25.803  22.487  0.00  0.00     0.084 H 
ATOM     29  C8  ROC d          24.336  23.238  20.463  0.00  0.00    -0.081 A 
ATOM     30  H4  ROC d          25.069  23.741  22.417  0.00  0.00     0.083 H 
ATOM     31  H5  ROC d          24.800  22.259  20.470  0.00  0.00     0.083 H 
ATOM     32  H6  ROC d          23.674  23.012  18.469  0.00  0.00     0.087 H 
ENDBRANCH  14  17
ENDBRANCH  11  13
BRANCH  11  33
ATOM     33  C13 ROC d          19.677  25.482  14.164  0.00  0.00     0.036 C 
ATOM     34  H9  ROC d          18.935  25.682  13.377  0.00  0.00     0.051 H 
ATOM     35  H10 ROC d          19.872  24.401  14.219  0.00  0.00     0.051 H 
BRANCH  33  36
ATOM     36  C14 ROC d          20.923  26.203  13.875  0.00  0.00     0.217 C 
ATOM     37  O3  ROC d          21.084  27.359  13.459  0.00  0.00    -0.274 OA
ATOM     38  N3  ROC d          22.003  25.547  14.043  0.00  0.00    -0.370 N 
ATOM     39  H11 ROC d          22.885  25.982  13.863  0.00  0.00     0.159 HD
ATOM     40  H12 ROC d          21.967  24.598  14.354  0.00  0.00     0.159 HD
ENDBRANCH  33  36
ENDBRANCH  11  33
ENDBRANCH   8  11
ENDBRANCH   5   7
BRANCH   5  41
ATOM     41  C17 ROC d          15.891  22.833  14.022  0.00  0.00    -0.020 C 
ATOM     42  H17 ROC d          16.599  22.035  13.750  0.00  0.00     0.043 H 
ATOM     43  H18 ROC d          15.923  23.626  13.260  0.00  0.00     0.043 H 
BRANCH  41  44
ATOM     44  C18 ROC d          14.504  22.247  14.033  0.00  0.00    -0.056 A 
ATOM     45  C19 ROC d          13.512  22.802  14.814  0.00  0.00    -0.077 A 
ATOM     46  C21 ROC d          12.268  22.248  14.859  0.00  0.00    -0.082 A 
ATOM     47  H19 ROC d          13.725  23.690  15.400  0.00  0.00     0.084 H 
ATOM     48  C23 ROC d          11.984  21.152  14.090  0.00  0.00    -0.083 A 
ATOM     49  H21 ROC d          11.506  22.675  15.501  0.00  0.00     0.083 H 
ATOM     50  C22 ROC d          12.938  20.625  13.277  0.00  0.00    -0.082 A 
ATOM     51  H23 ROC d          10.998  20.704  14.130  0.00  0.00     0.083 H 
ATOM     52  C20 ROC d          14.201  21.160  13.262  0.00  0.00    -0.077 A 
ATOM     53  H22 ROC d          12.701  19.782  12.640  0.00  0.00     0.083 H 
ATOM     54  H20 ROC d          14.965  20.717  12.634  0.00  0.00     0.084 H 
ENDBRANCH  41  44
ENDBRANCH   5  41
ENDBRANCH   1   5
BRANCH   1  55
ATOM     55  C24 ROC d          16.067  22.652  17.758  0.00  0.00     0.110 C 
ATOM     56  H25 ROC d          15.288  21.901  17.953  0.00  0.00     0.080 H 
ATOM     57  H26 ROC d          15.615  23.655  17.746  0.00  0.00     0.080 H 
BRANCH  55  58
ATOM     58  N5  ROC d          17.046  22.593  18.811  0.00  0.00    -0.055 N 
ATOM     59  C25 ROC d          17.266  21.206  19.345  0.00  0.00     0.180 C 
ATOM     60  C27 ROC d          18.289  21.240  20.429  0.00  0.00    -0.026 C 
ATOM     61  H27 ROC d          17.622  20.562  18.528  0.00  0.00     0.100 H 
ATOM     62  C28 ROC d          19.600  21.843  20.019  0.00  0.00    -0.047 C 
ATOM     63  H28 ROC d          18.473  20.208  20.761  0.00  0.00     0.037 H 
ATOM     64  H29 ROC d          17.885  21.829  21.265  0.00  0.00     0.037 H 
ATOM     65  C29 ROC d          20.617  21.936  21.150  0.00  0.00    -0.061 C 
ATOM     66  C33 ROC d          19.286  23.227  19.432  0.00  0.00    -0.027 C 
ATOM     67  H30 ROC d          20.040  21.214  19.232  0.00  0.00     0.040 H 
ATOM     68  C30 ROC d          20.310  23.009  22.169  0.00  0.00    -0.065 C 
ATOM     69  H31 ROC d          21.603  22.148  20.711  0.00  0.00     0.033 H 
ATOM     70  H32 ROC d          20.647  20.966  21.667  0.00  0.00     0.033 H 
ATOM     71  C31 ROC d          20.144  24.350  21.510  0.00  0.00    -0.065 C 
ATOM     72  H33 ROC d          21.137  23.065  22.893  0.00  0.00     0.033 H 
ATOM     73  H34 ROC d          19.380  22.750  22.696  0.00  0.00     0.033 H 
ATOM     74  C32 ROC d          19.006  24.216  20.508  0.00  0.00    -0.060 C 
ATOM     75  H35 ROC d          21.072  24.633  20.991  0.00  0.00     0.033 H 
ATOM     76  H36 ROC d          19.897  25.113  22.262  0.00  0.00     0.033 H 
ATOM     77  H37 ROC d          18.832  25.197  20.043  0.00  0.00     0.033 H 
ATOM     78  H38 ROC d          18.101  23.899  21.046  0.00  0.00     0.033 H 
ATOM     79  C34 ROC d          18.290  23.156  18.347  0.00  0.00     0.088 C 
ATOM     80  H39 ROC d          20.213  23.572  18.951  0.00  0.00     0.043 H 
ATOM     81  H40 ROC d          18.104  24.171  17.966  0.00  0.00     0.076 H 
ATOM     82  H41 ROC d          18.688  22.528  17.536  0.00  0.00     0.076 H 
ATOM     83  H24 ROC d          16.709  23.160  19.572  0.00  0.00     0.281 HD
BRANCH  59  84
ATOM     84  C26 ROC d          15.964  20.622  19.917  0.00  0.00     0.249 C 
ATOM     85  O5  ROC d          15.330  21.196  20.787  0.00  0.00    -0.271 OA
ATOM     86  N6  ROC d          15.566  19.457  19.347  0.00  0.00    -0.351 N 
ATOM     87  H42 ROC d          16.091  19.117  18.568  0.00  0.00     0.163 HD
BRANCH  86  88
ATOM     88  C35 ROC d          14.431  18.669  19.791  0.00  0.00     0.022 C 
BRANCH  88  89
ATOM     89  C36 ROC d          14.411  18.651  21.304  0.00  0.00    -0.054 C 
ATOM     90  H43 ROC d          14.981  19.509  21.689  0.00  0.00     0.030 H 
ATOM     91  H44 ROC d          14.866  17.716  21.666  0.00  0.00     0.030 H 
ATOM     92  H45 ROC d          13.372  18.714  21.658  0.00  0.00     0.030 H 
ENDBRANCH  88  89
BRANCH  88  93
ATOM     93  C37 ROC d          14.609  17.248  19.320  0.00  0.00    -0.054 C 
ATOM     94  H46 ROC d          15.440  16.781  19.869  0.00  0.00     0.030 H 
ATOM     95  H47 ROC d          14.834  17.245  18.243  0.00  0.00     0.030 H 
ATOM     96  H48 ROC d          13.685  16.681  19.504  0.00  0.00     0.030 H 
ENDBRANCH  88  93
BRANCH  88  97
ATOM     97  C38 ROC d          13.173  19.305  19.271  0.00  0.00    -0.054 C 
ATOM     98  H49 ROC d          13.301  19.552  18.206  0.00  0.00     0.030 H 
ATOM     99  H50 ROC d          12.966  20.224  19.839  0.00  0.00     0.030 H 
ATOM    100  H51 ROC d          12.333  18.604  19.387  0.00  0.00     0.030 H 
ENDBRANCH  88  97
ENDBRANCH  86  88
ENDBRANCH  59  84
ENDBRANCH  55  58
ENDBRANCH   1  55
TORSDOF 17
ENDMDL
MODEL 3
REMARK VINA RESULT:      -8.9      2.021      8.137
REMARK  17 active torsions:
REMARK  status: ('A' for Active; 'I' for Inactive)
REMARK    1  A    between atoms: C1_2  and  C2_4 
REMARK       I    between atoms: N2_13  and  C1_2 
REMARK    2  A    between atoms: C11_14  and  N2_13 
REMARK    3  A    between atoms: C12_15  and  C11_14 
REMARK    4  A    between atoms: C11_14  and  C13_17 
REMARK       I    between atoms: N4_24  and  C12_15 
REMARK    5  A    between atoms: C13_17  and  C14_18 
REMARK       I    between atoms: C14_18  and  N3_20 
REMARK    6  A    between atoms: C15_21  and  O4_22 
REMARK    7  A    between atoms: C16_23  and  C15_21 
REMARK    8  A    between atoms: C15_21  and  C24_33 
REMARK    9  A    between atoms: C16_23  and  N4_24 
REMARK   10  A    between atoms: C16_23  and  C17_25 
REMARK   11  A    between atoms: C17_25  and  C18_26 
REMARK   12  A    between atoms: C24_33  and  N5_32 
REMARK   13  A    between atoms: C25_34  and  C26_35 
REMARK       I    between atoms: C26_35  and  N6_45 
REMARK   14  A    between atoms: N6_45  and  C35_46 
REMARK   15  A    between atoms: C35_46  and  C36_47 
REMARK   16  A    between atoms: C35_46  and  C37_48 
REMARK   17  A    between atoms: C35_46  and  C38_49 
ROOT
ATOM      1  C15 ROC d          17.633  24.693  16.872  0.00  0.00     0.078 C 
ATOM      2  H13 ROC d          17.272  24.035  17.676  0.00  0.00     0.088 H 
ENDROOT
BRANCH   1   3
ATOM      3  O4  ROC d          16.589  25.608  16.562  0.00  0.00    -0.392 OA
ATOM      4  H14 ROC d          16.551  26.283  17.230  0.00  0.00     0.210 HD
ENDBRANCH   1   3
BRANCH   1   5
ATOM      5  C16 ROC d          17.943  23.803  15.663  0.00  0.00     0.042 C 
ATOM      6  H15 ROC d          18.928  23.336  15.811  0.00  0.00     0.077 H 
BRANCH   5   7
ATOM      7  N4  ROC d          16.903  22.767  15.574  0.00  0.00    -0.352 N 
ATOM      8  C12 ROC d          15.757  22.974  14.932  0.00  0.00     0.241 C 
ATOM      9  O2  ROC d          15.390  24.023  14.354  0.00  0.00    -0.271 OA
ATOM     10  H16 ROC d          17.062  21.880  16.008  0.00  0.00     0.163 HD
BRANCH   8  11
ATOM     11  C11 ROC d          14.778  21.804  14.925  0.00  0.00     0.097 C 
ATOM     12  H8  ROC d          15.150  21.031  14.237  0.00  0.00     0.088 H 
BRANCH  11  13
ATOM     13  N2  ROC d          14.751  21.255  16.245  0.00  0.00    -0.342 N 
ATOM     14  C1  ROC d          14.516  21.983  17.355  0.00  0.00     0.271 C 
ATOM     15  O1  ROC d          14.425  23.227  17.357  0.00  0.00    -0.266 OA
ATOM     16  H7  ROC d          14.915  20.275  16.351  0.00  0.00     0.163 HD
BRANCH  14  17
ATOM     17  C2  ROC d          14.393  21.134  18.557  0.00  0.00     0.125 C 
ATOM     18  N1  ROC d          13.507  20.110  18.580  0.00  0.00    -0.243 NA
ATOM     19  C10 ROC d          13.358  19.317  19.673  0.00  0.00     0.068 A 
ATOM     20  C5  ROC d          14.144  19.549  20.804  0.00  0.00    -0.007 A 
ATOM     21  C9R ROC d          12.466  18.238  19.686  0.00  0.00    -0.054 A 
ATOM     22  C4  ROC d          15.032  20.616  20.792  0.00  0.00    -0.068 C 
ATOM     23  C6  ROC d          13.945  18.758  21.916  0.00  0.00    -0.071 A 
ATOM     24  C3  ROC d          15.250  21.394  19.648  0.00  0.00    -0.049 C 
ATOM     25  H2  ROC d          15.575  20.855  21.700  0.00  0.00     0.085 H 
ATOM     26  H1  ROC d          16.027  22.147  19.603  0.00  0.00     0.087 H 
ATOM     27  C7  ROC d          13.088  17.678  21.921  0.00  0.00    -0.082 A 
ATOM     28  H3  ROC d          14.486  18.996  22.825  0.00  0.00     0.084 H 
ATOM     29  C8  ROC d          12.317  17.490  20.803  0.00  0.00    -0.081 A 
ATOM     30  H4  ROC d          13.026  17.008  22.771  0.00  0.00     0.083 H 
ATOM     31  H5  ROC d          11.562  16.713  20.815  0.00  0.00     0.083 H 
ATOM     32  H6  ROC d          11.892  18.001  18.798  0.00  0.00     0.087 H 
ENDBRANCH  14  17
ENDBRANCH  11  13
BRANCH  11  33
ATOM     33  C13 ROC d          13.425  22.249  14.429  0.00  0.00     0.036 C 
ATOM     34  H9  ROC d          13.446  22.372  13.335  0.00  0.00     0.051 H 
ATOM     35  H10 ROC d          13.147  23.204  14.899  0.00  0.00     0.051 H 
BRANCH  33  36
ATOM     36  C14 ROC d          12.460  21.206  14.800  0.00  0.00     0.217 C 
ATOM     37  O3  ROC d          12.506  19.985  14.598  0.00  0.00    -0.274 OA
ATOM     38  N3  ROC d          11.401  21.605  15.387  0.00  0.00    -0.370 N 
ATOM     39  H11 ROC d          10.705  20.944  15.666  0.00  0.00     0.159 HD
ATOM     40  H12 ROC d          11.268  22.579  15.569  0.00  0.00     0.159 HD
ENDBRANCH  33  36
ENDBRANCH  11  33
ENDBRANCH   8  11
ENDBRANCH   5   7
BRANCH   5  41
ATOM     41  C17 ROC d          17.947  24.557  14.336  0.00  0.00    -0.020 C 
ATOM     42  H17 ROC d          17.001  25.113  14.254  0.00  0.00     0.043 H 
ATOM     43  H18 ROC d          18.012  23.821  13.522  0.00  0.00     0.043 H 
BRANCH  41  44
ATOM     44  C18 ROC d          19.082  25.534  14.179  0.00  0.00    -0.056 A 
ATOM     45  C19 ROC d          20.384  25.090  14.081  0.00  0.00    -0.077 A 
ATOM     46  C21 ROC d          21.416  25.974  13.981  0.00  0.00    -0.082 A 
ATOM     47  H19 ROC d          20.589  24.025  14.083  0.00  0.00     0.084 H 
ATOM     48  C23 ROC d          21.159  27.317  13.937  0.00  0.00    -0.083 A 
ATOM     49  H21 ROC d          22.438  25.614  13.936  0.00  0.00     0.083 H 
ATOM     50  C22 ROC d          19.876  27.767  13.982  0.00  0.00    -0.082 A 
ATOM     51  H23 ROC d          21.978  28.024  13.867  0.00  0.00     0.083 H 
ATOM     52  C20 ROC d          18.841  26.879  14.122  0.00  0.00    -0.077 A 
ATOM     53  H22 ROC d          19.671  28.828  13.908  0.00  0.00     0.083 H 
ATOM     54  H20 ROC d          17.823  27.245  14.187  0.00  0.00     0.084 H 
ENDBRANCH  41  44
ENDBRANCH   5  41
ENDBRANCH   1   5
BRANCH   1  55
ATOM     55  C24 ROC d          18.840  25.423  17.405  0.00  0.00     0.110 C 
ATOM     56  H25 ROC d          18.540  26.436  17.708  0.00  0.00     0.080 H 
ATOM     57  H26 ROC d          19.598  25.487  16.610  0.00  0.00     0.080 H 
BRANCH  55  58
ATOM     58  N5  ROC d          19.409  24.744  18.539  0.00  0.00    -0.055 N 
ATOM     59  C25 ROC d          20.139  25.661  19.479  0.00  0.00     0.180 C 
ATOM     60  C27 ROC d          20.696  24.876  20.617  0.00  0.00    -0.026 C 
ATOM     61  H27 ROC d          19.434  26.412  19.864  0.00  0.00     0.100 H 
ATOM     62  C28 ROC d          19.675  24.078  21.373  0.00  0.00    -0.047 C 
ATOM     63  H28 ROC d          21.174  25.576  21.317  0.00  0.00     0.037 H 
ATOM     64  H29 ROC d          21.451  24.182  20.220  0.00  0.00     0.037 H 
ATOM     65  C29 ROC d          20.261  23.227  22.491  0.00  0.00    -0.061 C 
ATOM     66  C33 ROC d          18.935  23.216  20.340  0.00  0.00    -0.027 C 
ATOM     67  H30 ROC d          18.960  24.776  21.831  0.00  0.00     0.040 H 
ATOM     68  C30 ROC d          21.022  22.012  22.009  0.00  0.00    -0.065 C 
ATOM     69  H31 ROC d          19.437  22.885  23.134  0.00  0.00     0.033 H 
ATOM     70  H32 ROC d          20.948  23.854  23.079  0.00  0.00     0.033 H 
ATOM     71  C31 ROC d          20.171  21.166  21.104  0.00  0.00    -0.065 C 
ATOM     72  H33 ROC d          21.329  21.412  22.878  0.00  0.00     0.033 H 
ATOM     73  H34 ROC d          21.914  22.342  21.458  0.00  0.00     0.033 H 
ATOM     74  C32 ROC d          19.756  22.043  19.932  0.00  0.00    -0.060 C 
ATOM     75  H35 ROC d          19.280  20.813  21.645  0.00  0.00     0.033 H 
ATOM     76  H36 ROC d          20.747  20.301  20.743  0.00  0.00     0.033 H 
ATOM     77  H37 ROC d          19.169  21.434  19.230  0.00  0.00     0.033 H 
ATOM     78  H38 ROC d          20.663  22.410  19.431  0.00  0.00     0.033 H 
ATOM     79  C34 ROC d          18.375  24.024  19.240  0.00  0.00     0.088 C 
ATOM     80  H39 ROC d          18.063  22.795  20.862  0.00  0.00     0.043 H 
ATOM     81  H40 ROC d          17.860  23.358  18.534  0.00  0.00     0.076 H 
ATOM     82  H41 ROC d          17.655  24.745  19.656  0.00  0.00     0.076 H 
ATOM     83  H24 ROC d          20.077  24.076  18.190  0.00  0.00     0.281 HD
BRANCH  59  84
ATOM     84  C26 ROC d          21.297  26.378  18.763  0.00  0.00     0.249 C 
ATOM     85  O5  ROC d          21.123  27.410  18.135  0.00  0.00    -0.271 OA
ATOM     86  N6  ROC d          22.511  25.797  18.926  0.00  0.00    -0.351 N 
ATOM     87  H42 ROC d          22.574  25.015  19.546  0.00  0.00     0.163 HD
BRANCH  86  88
ATOM     88  C35 ROC d          23.727  26.231  18.262  0.00  0.00     0.022 C 
BRANCH  88  89
ATOM     89  C36 ROC d          24.633  25.035  18.071  0.00  0.00    -0.054 C 
ATOM     90  H43 ROC d          24.337  24.491  17.162  0.00  0.00     0.030 H 
ATOM     91  H44 ROC d          24.547  24.367  18.942  0.00  0.00     0.030 H 
ATOM     92  H45 ROC d          25.674  25.375  17.971  0.00  0.00     0.030 H 
ENDBRANCH  88  89
BRANCH  88  93
ATOM     93  C37 ROC d          24.446  27.211  19.154  0.00  0.00    -0.054 C 
ATOM     94  H46 ROC d          23.990  27.199  20.154  0.00  0.00     0.030 H 
ATOM     95  H47 ROC d          24.366  28.222  18.727  0.00  0.00     0.030 H 
ATOM     96  H48 ROC d          25.506  26.928  19.231  0.00  0.00     0.030 H 
ENDBRANCH  88  93
BRANCH  88  97
ATOM     97  C38 ROC d          23.361  26.814  16.926  0.00  0.00    -0.054 C 
ATOM     98  H49 ROC d          22.467  26.304  16.536  0.00  0.00     0.030 H 
ATOM     99  H50 ROC d          24.197  26.675  16.224  0.00  0.00     0.030 H 
ATOM    100  H51 ROC d          23.152  27.888  17.040  0.00  0.00     0.030 H 
ENDBRANCH  88  97
ENDBRANCH  86  88
ENDBRANCH  59  84
ENDBRANCH  55  58
ENDBRANCH   1  55
TORSDOF 17
ENDMDL
MODEL 4
REMARK VINA RESULT:      -8.3      2.019      9.563
REMARK  17 active torsions:
REMARK  status: ('A' for Active; 'I' for Inactive)
REMARK    1  A    between atoms: C1_2  and  C2_4 
REMARK       I    between atoms: N2_13  and  C1_2 
REMARK    2  A    between atoms: C11_14  and  N2_13 
REMARK    3  A    between atoms: C12_15  and  C11_14 
REMARK    4  A    between atoms: C11_14  and  C13_17 
REMARK       I    between atoms: N4_24  and  C12_15 
REMARK    5  A    between atoms: C13_17  and  C14_18 
REMARK       I    between atoms: C14_18  and  N3_20 
REMARK    6  A    between atoms: C15_21  and  O4_22 
REMARK    7  A    between atoms: C16_23  and  C15_21 
REMARK    8  A    between atoms: C15_21  and  C24_33 
REMARK    9  A    between atoms: C16_23  and  N4_24 
REMARK   10  A    between atoms: C16_23  and  C17_25 
REMARK   11  A    between atoms: C17_25  and  C18_26 
REMARK   12  A    between atoms: C24_33  and  N5_32 
REMARK   13  A    between atoms: C25_34  and  C26_35 
REMARK       I    between atoms: C26_35  and  N6_45 
REMARK   14  A    between atoms: N6_45  and  C35_46 
REMARK   15  A    between atoms: C35_46  and  C36_47 
REMARK   16  A    between atoms: C35_46  and  C37_48 
REMARK   17  A    between atoms: C35_46  and  C38_49 
ROOT
ATOM      1  C15 ROC d          19.048  24.216  18.520  0.00  0.00     0.078 C 
ATOM      2  H13 ROC d          19.776  23.409  18.687  0.00  0.00     0.088 H 
ENDROOT
BRANCH   1   3
ATOM      3  O4  ROC d          18.311  24.390  19.724  0.00  0.00    -0.392 OA
ATOM      4  H14 ROC d          18.370  25.296  20.003  0.00  0.00     0.210 HD
ENDBRANCH   1   3
BRANCH   1   5
ATOM      5  C16 ROC d          18.122  23.763  17.385  0.00  0.00     0.042 C 
ATOM      6  H15 ROC d          18.726  23.262  16.614  0.00  0.00     0.077 H 
BRANCH   5   7
ATOM      7  N4  ROC d          17.136  22.823  17.941  0.00  0.00    -0.352 N 
ATOM      8  C12 ROC d          15.969  23.235  18.429  0.00  0.00     0.241 C 
ATOM      9  O2  ROC d          15.554  24.414  18.508  0.00  0.00    -0.271 OA
ATOM     10  H16 ROC d          17.350  21.846  17.953  0.00  0.00     0.163 HD
BRANCH   8  11
ATOM     11  C11 ROC d          15.052  22.141  18.969  0.00  0.00     0.097 C 
ATOM     12  H8  ROC d          14.220  22.610  19.515  0.00  0.00     0.088 H 
BRANCH  11  13
ATOM     13  N2  ROC d          14.514  21.435  17.848  0.00  0.00    -0.342 N 
ATOM     14  C1  ROC d          13.811  22.022  16.859  0.00  0.00     0.271 C 
ATOM     15  O1  ROC d          13.449  23.215  16.886  0.00  0.00    -0.266 OA
ATOM     16  H7  ROC d          14.669  20.449  17.795  0.00  0.00     0.163 HD
BRANCH  14  17
ATOM     17  C2  ROC d          13.515  21.082  15.759  0.00  0.00     0.125 C 
ATOM     18  N1  ROC d          12.274  20.556  15.627  0.00  0.00    -0.243 NA
ATOM     19  C10 ROC d          11.971  19.679  14.635  0.00  0.00     0.068 A 
ATOM     20  C5  ROC d          12.955  19.314  13.715  0.00  0.00    -0.007 A 
ATOM     21  C9R ROC d          10.680  19.159  14.479  0.00  0.00    -0.054 A 
ATOM     22  C4  ROC d          14.234  19.830  13.865  0.00  0.00    -0.068 C 
ATOM     23  C6  ROC d          12.635  18.389  12.742  0.00  0.00    -0.071 A 
ATOM     24  C3  ROC d          14.542  20.792  14.836  0.00  0.00    -0.049 C 
ATOM     25  H2  ROC d          15.022  19.477  13.209  0.00  0.00     0.085 H 
ATOM     26  H1  ROC d          15.508  21.281  14.875  0.00  0.00     0.087 H 
ATOM     27  C7  ROC d          11.358  17.899  12.569  0.00  0.00    -0.082 A 
ATOM     28  H3  ROC d          13.421  18.033  12.086  0.00  0.00     0.084 H 
ATOM     29  C8  ROC d          10.420  18.261  13.501  0.00  0.00    -0.081 A 
ATOM     30  H4  ROC d          11.107  17.255  11.734  0.00  0.00     0.083 H 
ATOM     31  H5  ROC d           9.435  17.812  13.453  0.00  0.00     0.083 H 
ATOM     32  H6  ROC d           9.885  19.478  15.144  0.00  0.00     0.087 H 
ENDBRANCH  14  17
ENDBRANCH  11  13
BRANCH  11  33
ATOM     33  C13 ROC d          15.798  21.258  19.938  0.00  0.00     0.036 C 
ATOM     34  H9  ROC d          15.664  21.628  20.965  0.00  0.00     0.051 H 
ATOM     35  H10 ROC d          16.869  21.247  19.689  0.00  0.00     0.051 H 
BRANCH  33  36
ATOM     36  C14 ROC d          15.239  19.906  19.813  0.00  0.00     0.217 C 
ATOM     37  O3  ROC d          15.460  19.039  18.955  0.00  0.00    -0.274 OA
ATOM     38  N3  ROC d          14.375  19.573  20.689  0.00  0.00    -0.370 N 
ATOM     39  H11 ROC d          13.957  18.665  20.660  0.00  0.00     0.159 HD
ATOM     40  H12 ROC d          14.117  20.219  21.407  0.00  0.00     0.159 HD
ENDBRANCH  33  36
ENDBRANCH  11  33
ENDBRANCH   8  11
ENDBRANCH   5   7
BRANCH   5  41
ATOM     41  C17 ROC d          17.344  24.906  16.740  0.00  0.00    -0.020 C 
ATOM     42  H17 ROC d          17.910  25.837  16.894  0.00  0.00     0.043 H 
ATOM     43  H18 ROC d          16.368  24.983  17.240  0.00  0.00     0.043 H 
BRANCH  41  44
ATOM     44  C18 ROC d          17.105  24.740  15.262  0.00  0.00    -0.056 A 
ATOM     45  C19 ROC d          17.555  25.687  14.366  0.00  0.00    -0.077 A 
ATOM     46  C21 ROC d          17.303  25.560  13.033  0.00  0.00    -0.082 A 
ATOM     47  H19 ROC d          18.117  26.541  14.726  0.00  0.00     0.084 H 
ATOM     48  C23 ROC d          16.629  24.463  12.570  0.00  0.00    -0.083 A 
ATOM     49  H21 ROC d          17.635  26.326  12.341  0.00  0.00     0.083 H 
ATOM     50  C22 ROC d          16.223  23.497  13.438  0.00  0.00    -0.082 A 
ATOM     51  H23 ROC d          16.419  24.363  11.511  0.00  0.00     0.083 H 
ATOM     52  C20 ROC d          16.444  23.644  14.782  0.00  0.00    -0.077 A 
ATOM     53  H22 ROC d          15.725  22.610  13.065  0.00  0.00     0.083 H 
ATOM     54  H20 ROC d          16.092  22.885  15.471  0.00  0.00     0.084 H 
ENDBRANCH  41  44
ENDBRANCH   5  41
ENDBRANCH   1   5
BRANCH   1  55
ATOM     55  C24 ROC d          19.833  25.460  18.192  0.00  0.00     0.110 C 
ATOM     56  H25 ROC d          19.297  26.336  18.586  0.00  0.00     0.080 H 
ATOM     57  H26 ROC d          19.925  25.548  17.099  0.00  0.00     0.080 H 
BRANCH  55  58
ATOM     58  N5  ROC d          21.151  25.421  18.769  0.00  0.00    -0.055 N 
ATOM     59  C25 ROC d          21.912  26.706  18.608  0.00  0.00     0.180 C 
ATOM     60  C27 ROC d          23.260  26.574  19.230  0.00  0.00    -0.026 C 
ATOM     61  H27 ROC d          21.358  27.513  19.108  0.00  0.00     0.100 H 
ATOM     62  C28 ROC d          23.235  26.172  20.675  0.00  0.00    -0.047 C 
ATOM     63  H28 ROC d          23.773  27.543  19.151  0.00  0.00     0.037 H 
ATOM     64  H29 ROC d          23.824  25.813  18.671  0.00  0.00     0.037 H 
ATOM     65  C29 ROC d          24.617  25.974  21.285  0.00  0.00    -0.061 C 
ATOM     66  C33 ROC d          22.393  24.892  20.764  0.00  0.00    -0.027 C 
ATOM     67  H30 ROC d          22.735  26.967  21.247  0.00  0.00     0.040 H 
ATOM     68  C30 ROC d          25.318  24.714  20.829  0.00  0.00    -0.065 C 
ATOM     69  H31 ROC d          24.509  25.932  22.379  0.00  0.00     0.033 H 
ATOM     70  H32 ROC d          25.242  26.836  21.011  0.00  0.00     0.033 H 
ATOM     71  C31 ROC d          24.464  23.502  21.073  0.00  0.00    -0.065 C 
ATOM     72  H33 ROC d          26.262  24.607  21.384  0.00  0.00     0.033 H 
ATOM     73  H34 ROC d          25.533  24.792  19.753  0.00  0.00     0.033 H 
ATOM     74  C32 ROC d          23.167  23.707  20.303  0.00  0.00    -0.060 C 
ATOM     75  H35 ROC d          24.253  23.399  22.148  0.00  0.00     0.033 H 
ATOM     76  H36 ROC d          24.978  22.599  20.712  0.00  0.00     0.033 H 
ATOM     77  H37 ROC d          22.542  22.811  20.427  0.00  0.00     0.033 H 
ATOM     78  H38 ROC d          23.409  23.841  19.239  0.00  0.00     0.033 H 
ATOM     79  C34 ROC d          21.058  25.062  20.163  0.00  0.00     0.088 C 
ATOM     80  H39 ROC d          22.208  24.721  21.835  0.00  0.00     0.043 H 
ATOM     81  H40 ROC d          20.502  24.118  20.253  0.00  0.00     0.076 H 
ATOM     82  H41 ROC d          20.521  25.857  20.702  0.00  0.00     0.076 H 
ATOM     83  H24 ROC d          21.670  24.701  18.293  0.00  0.00     0.281 HD
BRANCH  59  84
ATOM     84  C26 ROC d          22.089  27.061  17.123  0.00  0.00     0.249 C 
ATOM     85  O5  ROC d          22.879  27.916  16.756  0.00  0.00    -0.271 OA
ATOM     86  N6  ROC d          21.337  26.323  16.269  0.00  0.00    -0.351 N 
ATOM     87  H42 ROC d          20.800  25.572  16.653  0.00  0.00     0.163 HD
BRANCH  86  88
ATOM     88  C35 ROC d          21.257  26.547  14.837  0.00  0.00     0.022 C 
BRANCH  88  89
ATOM     89  C36 ROC d          20.260  27.655  14.572  0.00  0.00    -0.054 C 
ATOM     90  H43 ROC d          19.254  27.319  14.861  0.00  0.00     0.030 H 
ATOM     91  H44 ROC d          20.270  27.908  13.501  0.00  0.00     0.030 H 
ATOM     92  H45 ROC d          20.533  28.542  15.161  0.00  0.00     0.030 H 
ENDBRANCH  88  89
BRANCH  88  93
ATOM     93  C37 ROC d          20.736  25.296  14.176  0.00  0.00    -0.054 C 
ATOM     94  H46 ROC d          20.666  24.490  14.921  0.00  0.00     0.030 H 
ATOM     95  H47 ROC d          21.423  24.994  13.372  0.00  0.00     0.030 H 
ATOM     96  H48 ROC d          19.740  25.492  13.754  0.00  0.00     0.030 H 
ENDBRANCH  88  93
BRANCH  88  97
ATOM     97  C38 ROC d          22.615  26.951  14.339  0.00  0.00    -0.054 C 
ATOM     98  H49 ROC d          23.305  27.046  15.192  0.00  0.00     0.030 H 
ATOM     99  H50 ROC d          22.542  27.917  13.817  0.00  0.00     0.030 H 
ATOM    100  H51 ROC d          22.993  26.186  13.645  0.00  0.00     0.030 H 
ENDBRANCH  88  97
ENDBRANCH  86  88
ENDBRANCH  59  84
ENDBRANCH  55  58
ENDBRANCH   1  55
TORSDOF 17
ENDMDL
MODEL 5
REMARK VINA RESULT:      -7.4      2.286      9.103
REMARK  17 active torsions:
REMARK  status: ('A' for Active; 'I' for Inactive)
REMARK    1  A    between atoms: C1_2  and  C2_4 
REMARK       I    between atoms: N2_13  and  C1_2 
REMARK    2  A    between atoms: C11_14  and  N2_13 
REMARK    3  A    between atoms: C12_15  and  C11_14 
REMARK    4  A    between atoms: C11_14  and  C13_17 
REMARK       I    between atoms: N4_24  and  C12_15 
REMARK    5  A    between atoms: C13_17  and  C14_18 
REMARK       I    between atoms: C14_18  and  N3_20 
REMARK    6  A    between atoms: C15_21  and  O4_22 
REMARK    7  A    between atoms: C16_23  and  C15_21 
REMARK    8  A    between atoms: C15_21  and  C24_33 
REMARK    9  A    between atoms: C16_23  and  N4_24 
REMARK   10  A    between atoms: C16_23  and  C17_25 
REMARK   11  A    between atoms: C17_25  and  C18_26 
REMARK   12  A    between atoms: C24_33  and  N5_32 
REMARK   13  A    between atoms: C25_34  and  C26_35 
REMARK       I    between atoms: C26_35  and  N6_45 
REMARK   14  A    between atoms: N6_45  and  C35_46 
REMARK   15  A    between atoms: C35_46  and  C36_47 
REMARK   16  A    between atoms: C35_46  and  C37_48 
REMARK   17  A    between atoms: C35_46  and  C38_49 
ROOT
ATOM      1  C15 ROC d          17.456  23.773  16.372  0.00  0.00     0.078 C 
ATOM      2  H13 ROC d          16.721  23.043  16.743  0.00  0.00     0.088 H 
ENDROOT
BRANCH   1   3
ATOM      3  O4  ROC d          17.131  25.038  16.934  0.00  0.00    -0.392 OA
ATOM      4  H14 ROC d          17.279  25.718  16.287  0.00  0.00     0.210 HD
ENDBRANCH   1   3
BRANCH   1   5
ATOM      5  C16 ROC d          17.323  23.813  14.845  0.00  0.00     0.042 C 
ATOM      6  H15 ROC d          18.112  23.185  14.405  0.00  0.00     0.077 H 
BRANCH   5   7
ATOM      7  N4  ROC d          15.999  23.285  14.483  0.00  0.00    -0.352 N 
ATOM      8  C12 ROC d          15.603  22.070  14.852  0.00  0.00     0.241 C 
ATOM      9  O2  ROC d          16.256  21.225  15.507  0.00  0.00    -0.271 OA
ATOM     10  H16 ROC d          15.379  23.855  13.944  0.00  0.00     0.163 HD
BRANCH   8  11
ATOM     11  C11 ROC d          14.203  21.663  14.402  0.00  0.00     0.097 C 
ATOM     12  H8  ROC d          14.284  21.054  13.489  0.00  0.00     0.088 H 
BRANCH  11  13
ATOM     13  N2  ROC d          13.635  20.853  15.434  0.00  0.00    -0.342 N 
ATOM     14  C1  ROC d          12.629  19.979  15.234  0.00  0.00     0.271 C 
ATOM     15  O1  ROC d          12.006  19.880  14.158  0.00  0.00    -0.266 OA
ATOM     16  H7  ROC d          14.006  20.941  16.359  0.00  0.00     0.163 HD
BRANCH  14  17
ATOM     17  C2  ROC d          12.351  19.171  16.438  0.00  0.00     0.125 C 
ATOM     18  N1  ROC d          12.887  19.519  17.632  0.00  0.00    -0.243 NA
ATOM     19  C10 ROC d          12.664  18.792  18.757  0.00  0.00     0.068 A 
ATOM     20  C5  ROC d          11.850  17.660  18.694  0.00  0.00    -0.007 A 
ATOM     21  C9R ROC d          13.193  19.171  19.998  0.00  0.00    -0.054 A 
ATOM     22  C4  ROC d          11.322  17.285  17.467  0.00  0.00    -0.068 C 
ATOM     23  C6  ROC d          11.672  16.913  19.840  0.00  0.00    -0.071 A 
ATOM     24  C3  ROC d          11.482  18.066  16.315  0.00  0.00    -0.049 C 
ATOM     25  H2  ROC d          10.767  16.356  17.397  0.00  0.00     0.085 H 
ATOM     26  H1  ROC d          10.971  17.835  15.387  0.00  0.00     0.087 H 
ATOM     27  C7  ROC d          12.168  17.299  21.067  0.00  0.00    -0.082 A 
ATOM     28  H3  ROC d          11.119  15.983  19.773  0.00  0.00     0.084 H 
ATOM     29  C8  ROC d          12.979  18.404  21.092  0.00  0.00    -0.081 A 
ATOM     30  H4  ROC d          11.927  16.754  21.972  0.00  0.00     0.083 H 
ATOM     31  H5  ROC d          13.466  18.674  22.022  0.00  0.00     0.083 H 
ATOM     32  H6  ROC d          13.774  20.081  20.082  0.00  0.00     0.087 H 
ENDBRANCH  14  17
ENDBRANCH  11  13
BRANCH  11  33
ATOM     33  C13 ROC d          13.380  22.883  14.070  0.00  0.00     0.036 C 
ATOM     34  H9  ROC d          12.730  22.675  13.206  0.00  0.00     0.051 H 
ATOM     35  H10 ROC d          14.040  23.731  13.837  0.00  0.00     0.051 H 
BRANCH  33  36
ATOM     36  C14 ROC d          12.563  23.191  15.251  0.00  0.00     0.217 C 
ATOM     37  O3  ROC d          11.431  22.788  15.551  0.00  0.00    -0.274 OA
ATOM     38  N3  ROC d          13.067  24.017  16.081  0.00  0.00    -0.370 N 
ATOM     39  H11 ROC d          12.561  24.268  16.906  0.00  0.00     0.159 HD
ATOM     40  H12 ROC d          13.969  24.412  15.907  0.00  0.00     0.159 HD
ENDBRANCH  33  36
ENDBRANCH  11  33
ENDBRANCH   8  11
ENDBRANCH   5   7
BRANCH   5  41
ATOM     41  C17 ROC d          17.426  25.219  14.262  0.00  0.00    -0.020 C 
ATOM     42  H17 ROC d          16.753  25.877  14.831  0.00  0.00     0.043 H 
ATOM     43  H18 ROC d          17.100  25.181  13.212  0.00  0.00     0.043 H 
BRANCH  41  44
ATOM     44  C18 ROC d          18.810  25.811  14.304  0.00  0.00    -0.056 A 
ATOM     45  C19 ROC d          19.002  27.126  14.676  0.00  0.00    -0.077 A 
ATOM     46  C21 ROC d          20.249  27.676  14.673  0.00  0.00    -0.082 A 
ATOM     47  H19 ROC d          18.151  27.728  14.974  0.00  0.00     0.084 H 
ATOM     48  C23 ROC d          21.330  26.908  14.337  0.00  0.00    -0.083 A 
ATOM     49  H21 ROC d          20.383  28.719  14.937  0.00  0.00     0.083 H 
ATOM     50  C22 ROC d          21.160  25.597  14.017  0.00  0.00    -0.082 A 
ATOM     51  H23 ROC d          22.322  27.344  14.325  0.00  0.00     0.083 H 
ATOM     52  C20 ROC d          19.902  25.054  13.982  0.00  0.00    -0.077 A 
ATOM     53  H22 ROC d          22.021  24.980  13.789  0.00  0.00     0.083 H 
ATOM     54  H20 ROC d          19.771  24.017  13.697  0.00  0.00     0.084 H 
ENDBRANCH  41  44
ENDBRANCH   5  41
ENDBRANCH   1   5
BRANCH   1  55
ATOM     55  C24 ROC d          18.813  23.314  16.844  0.00  0.00     0.110 C 
ATOM     56  H25 ROC d          19.524  23.384  16.008  0.00  0.00     0.080 H 
ATOM     57  H26 ROC d          18.741  22.268  17.177  0.00  0.00     0.080 H 
BRANCH  55  58
ATOM     58  N5  ROC d          19.293  24.120  17.935  0.00  0.00    -0.055 N 
ATOM     59  C25 ROC d          19.165  23.450  19.274  0.00  0.00     0.180 C 
ATOM     60  C27 ROC d          19.681  24.354  20.340  0.00  0.00    -0.026 C 
ATOM     61  H27 ROC d          19.756  22.522  19.265  0.00  0.00     0.100 H 
ATOM     62  C28 ROC d          21.095  24.811  20.130  0.00  0.00    -0.047 C 
ATOM     63  H28 ROC d          19.631  23.819  21.300  0.00  0.00     0.037 H 
ATOM     64  H29 ROC d          19.034  25.243  20.381  0.00  0.00     0.037 H 
ATOM     65  C29 ROC d          21.592  25.787  21.189  0.00  0.00    -0.061 C 
ATOM     66  C33 ROC d          21.156  25.426  18.725  0.00  0.00    -0.027 C 
ATOM     67  H30 ROC d          21.751  23.929  20.162  0.00  0.00     0.040 H 
ATOM     68  C30 ROC d          21.005  27.176  21.072  0.00  0.00    -0.065 C 
ATOM     69  H31 ROC d          22.685  25.866  21.099  0.00  0.00     0.033 H 
ATOM     70  H32 ROC d          21.333  25.385  22.179  0.00  0.00     0.033 H 
ATOM     71  C31 ROC d          21.226  27.743  19.697  0.00  0.00    -0.065 C 
ATOM     72  H33 ROC d          21.484  27.832  21.813  0.00  0.00     0.033 H 
ATOM     73  H34 ROC d          19.924  27.127  21.271  0.00  0.00     0.033 H 
ATOM     74  C32 ROC d          20.564  26.791  18.710  0.00  0.00    -0.060 C 
ATOM     75  H35 ROC d          22.304  27.814  19.488  0.00  0.00     0.033 H 
ATOM     76  H36 ROC d          20.771  28.741  19.623  0.00  0.00     0.033 H 
ATOM     77  H37 ROC d          20.672  27.208  17.698  0.00  0.00     0.033 H 
ATOM     78  H38 ROC d          19.497  26.712  18.963  0.00  0.00     0.033 H 
ATOM     79  C34 ROC d          20.662  24.499  17.690  0.00  0.00     0.088 C 
ATOM     80  H39 ROC d          22.224  25.568  18.500  0.00  0.00     0.043 H 
ATOM     81  H40 ROC d          20.728  24.990  16.709  0.00  0.00     0.076 H 
ATOM     82  H41 ROC d          21.290  23.595  17.690  0.00  0.00     0.076 H 
ATOM     83  H24 ROC d          18.735  24.958  17.962  0.00  0.00     0.281 HD
BRANCH  59  84
ATOM     84  C26 ROC d          17.698  23.111  19.584  0.00  0.00     0.249 C 
ATOM     85  O5  ROC d          16.969  23.893  20.173  0.00  0.00    -0.271 OA
ATOM     86  N6  ROC d          17.282  21.909  19.115  0.00  0.00    -0.351 N 
ATOM     87  H42 ROC d          17.918  21.384  18.550  0.00  0.00     0.163 HD
BRANCH  86  88
ATOM     88  C35 ROC d          15.976  21.330  19.375  0.00  0.00     0.022 C 
BRANCH  88  89
ATOM     89  C36 ROC d          15.674  21.452  20.853  0.00  0.00    -0.054 C 
ATOM     90  H43 ROC d          14.610  21.692  20.992  0.00  0.00     0.030 H 
ATOM     91  H44 ROC d          16.291  22.252  21.289  0.00  0.00     0.030 H 
ATOM     92  H45 ROC d          15.902  20.500  21.353  0.00  0.00     0.030 H 
ENDBRANCH  88  89
BRANCH  88  93
ATOM     93  C37 ROC d          16.017  19.862  19.037  0.00  0.00    -0.054 C 
ATOM     94  H46 ROC d          16.378  19.734  18.006  0.00  0.00     0.030 H 
ATOM     95  H47 ROC d          15.006  19.437  19.126  0.00  0.00     0.030 H 
ATOM     96  H48 ROC d          16.695  19.344  19.730  0.00  0.00     0.030 H 
ENDBRANCH  88  93
BRANCH  88  97
ATOM     97  C38 ROC d          14.950  22.087  18.580  0.00  0.00    -0.054 C 
ATOM     98  H49 ROC d          15.156  23.166  18.647  0.00  0.00     0.030 H 
ATOM     99  H50 ROC d          13.947  21.879  18.983  0.00  0.00     0.030 H 
ATOM    100  H51 ROC d          14.996  21.770  17.528  0.00  0.00     0.030 H 
ENDBRANCH  88  97
ENDBRANCH  86  88
ENDBRANCH  59  84
ENDBRANCH  55  58
ENDBRANCH   1  55
TORSDOF 17
ENDMDL
MODEL 6
REMARK VINA RESULT:      -7.2      2.398      8.838
REMARK  17 active torsions:
REMARK  status: ('A' for Active; 'I' for Inactive)
REMARK    1  A    between atoms: C1_2  and  C2_4 
REMARK       I    between atoms: N2_13  and  C1_2 
REMARK    2  A    between atoms: C11_14  and  N2_13 
REMARK    3  A    between atoms: C12_15  and  C11_14 
REMARK    4  A    between atoms: C11_14  and  C13_17 
REMARK       I    between atoms: N4_24  and  C12_15 
REMARK    5  A    between atoms: C13_17  and  C14_18 
REMARK       I    between atoms: C14_18  and  N3_20 
REMARK    6  A    between atoms: C15_21  and  O4_22 
REMARK    7  A    between atoms: C16_23  and  C15_21 
REMARK    8  A    between atoms: C15_21  and  C24_33 
REMARK    9  A    between atoms: C16_23  and  N4_24 
REMARK   10  A    between atoms: C16_23  and  C17_25 
REMARK   11  A    between atoms: C17_25  and  C18_26 
REMARK   12  A    between atoms: C24_33  and  N5_32 
REMARK   13  A    between atoms: C25_34  and  C26_35 
REMARK       I    between atoms: C26_35  and  N6_45 
REMARK   14  A    between atoms: N6_45  and  C35_46 
REMARK   15  A    between atoms: C35_46  and  C36_47 
REMARK   16  A    between atoms: C35_46  and  C37_48 
REMARK   17  A    between atoms: C35_46  and  C38_49 
ROOT
ATOM      1  C15 ROC d          17.102  24.110  17.016  0.00  0.00     0.078 C 
ATOM      2  H13 ROC d          17.454  23.405  17.783  0.00  0.00     0.088 H 
ENDROOT
BRANCH   1   3
ATOM      3  O4  ROC d          15.681  24.048  16.992  0.00  0.00    -0.392 OA
ATOM      4  H14 ROC d          15.324  24.847  17.359  0.00  0.00     0.210 HD
ENDBRANCH   1   3
BRANCH   1   5
ATOM      5  C16 ROC d          17.681  23.646  15.675  0.00  0.00     0.042 C 
ATOM      6  H15 ROC d          18.754  23.439  15.805  0.00  0.00     0.077 H 
BRANCH   5   7
ATOM      7  N4  ROC d          16.979  22.419  15.268  0.00  0.00    -0.352 N 
ATOM      8  C12 ROC d          15.790  22.454  14.673  0.00  0.00     0.241 C 
ATOM      9  O2  ROC d          15.108  23.469  14.399  0.00  0.00    -0.271 OA
ATOM     10  H16 ROC d          17.408  21.533  15.443  0.00  0.00     0.163 HD
BRANCH   8  11
ATOM     11  C11 ROC d          15.189  21.099  14.309  0.00  0.00     0.097 C 
ATOM     12  H8  ROC d          16.002  20.402  14.062  0.00  0.00     0.088 H 
BRANCH  11  13
ATOM     13  N2  ROC d          14.508  20.605  15.465  0.00  0.00    -0.342 N 
ATOM     14  C1  ROC d          13.263  20.980  15.821  0.00  0.00     0.271 C 
ATOM     15  O1  ROC d          12.629  21.890  15.251  0.00  0.00    -0.266 OA
ATOM     16  H7  ROC d          14.984  19.941  16.043  0.00  0.00     0.163 HD
BRANCH  14  17
ATOM     17  C2  ROC d          12.755  20.195  16.964  0.00  0.00     0.125 C 
ATOM     18  N1  ROC d          13.604  19.772  17.932  0.00  0.00    -0.243 NA
ATOM     19  C10 ROC d          13.173  19.038  18.990  0.00  0.00     0.068 A 
ATOM     20  C5  ROC d          11.819  18.717  19.099  0.00  0.00    -0.007 A 
ATOM     21  C9R ROC d          14.045  18.627  20.007  0.00  0.00    -0.054 A 
ATOM     22  C4  ROC d          10.953  19.125  18.095  0.00  0.00    -0.068 C 
ATOM     23  C6  ROC d          11.412  17.934  20.160  0.00  0.00    -0.071 A 
ATOM     24  C3  ROC d          11.368  19.945  17.038  0.00  0.00    -0.049 C 
ATOM     25  H2  ROC d           9.919  18.798  18.130  0.00  0.00     0.085 H 
ATOM     26  H1  ROC d          10.668  20.361  16.323  0.00  0.00     0.087 H 
ATOM     27  C7  ROC d          12.263  17.553  21.176  0.00  0.00    -0.082 A 
ATOM     28  H3  ROC d          10.380  17.604  20.196  0.00  0.00     0.084 H 
ATOM     29  C8  ROC d          13.589  17.868  21.029  0.00  0.00    -0.081 A 
ATOM     30  H4  ROC d          11.900  17.028  22.052  0.00  0.00     0.083 H 
ATOM     31  H5  ROC d          14.299  17.494  21.758  0.00  0.00     0.083 H 
ATOM     32  H6  ROC d          15.088  18.920  19.974  0.00  0.00     0.087 H 
ENDBRANCH  14  17
ENDBRANCH  11  13
BRANCH  11  33
ATOM     33  C13 ROC d          14.303  21.224  13.095  0.00  0.00     0.036 C 
ATOM     34  H9  ROC d          14.895  21.557  12.229  0.00  0.00     0.051 H 
ATOM     35  H10 ROC d          13.497  21.947  13.288  0.00  0.00     0.051 H 
BRANCH  33  36
ATOM     36  C14 ROC d          13.734  19.895  12.833  0.00  0.00     0.217 C 
ATOM     37  O3  ROC d          14.301  18.796  12.769  0.00  0.00    -0.274 OA
ATOM     38  N3  ROC d          12.481  19.857  12.606  0.00  0.00    -0.370 N 
ATOM     39  H11 ROC d          12.032  18.982  12.421  0.00  0.00     0.159 HD
ATOM     40  H12 ROC d          11.945  20.701  12.614  0.00  0.00     0.159 HD
ENDBRANCH  33  36
ENDBRANCH  11  33
ENDBRANCH   8  11
ENDBRANCH   5   7
BRANCH   5  41
ATOM     41  C17 ROC d          17.506  24.663  14.551  0.00  0.00    -0.020 C 
ATOM     42  H17 ROC d          16.655  25.311  14.803  0.00  0.00     0.043 H 
ATOM     43  H18 ROC d          17.288  24.115  13.622  0.00  0.00     0.043 H 
BRANCH  41  44
ATOM     44  C18 ROC d          18.708  25.537  14.310  0.00  0.00    -0.056 A 
ATOM     45  C19 ROC d          19.967  24.986  14.191  0.00  0.00    -0.077 A 
ATOM     46  C21 ROC d          21.061  25.780  14.016  0.00  0.00    -0.082 A 
ATOM     47  H19 ROC d          20.088  23.910  14.238  0.00  0.00     0.084 H 
ATOM     48  C23 ROC d          20.909  27.136  13.916  0.00  0.00    -0.083 A 
ATOM     49  H21 ROC d          22.049  25.337  13.955  0.00  0.00     0.083 H 
ATOM     50  C22 ROC d          19.668  27.688  13.981  0.00  0.00    -0.082 A 
ATOM     51  H23 ROC d          21.778  27.770  13.786  0.00  0.00     0.083 H 
ATOM     52  C20 ROC d          18.572  26.893  14.196  0.00  0.00    -0.077 A 
ATOM     53  H22 ROC d          19.545  28.758  13.862  0.00  0.00     0.083 H 
ATOM     54  H20 ROC d          17.589  27.342  14.276  0.00  0.00     0.084 H 
ENDBRANCH  41  44
ENDBRANCH   5  41
ENDBRANCH   1   5
BRANCH   1  55
ATOM     55  C24 ROC d          17.568  25.483  17.428  0.00  0.00     0.110 C 
ATOM     56  H25 ROC d          16.768  25.976  17.998  0.00  0.00     0.080 H 
ATOM     57  H26 ROC d          17.790  26.070  16.525  0.00  0.00     0.080 H 
BRANCH  55  58
ATOM     58  N5  ROC d          18.751  25.416  18.245  0.00  0.00    -0.055 N 
ATOM     59  C25 ROC d          19.170  24.011  18.574  0.00  0.00     0.180 C 
ATOM     60  C27 ROC d          20.396  24.037  19.422  0.00  0.00    -0.026 C 
ATOM     61  H27 ROC d          19.385  23.475  17.639  0.00  0.00     0.100 H 
ATOM     62  C28 ROC d          21.547  24.785  18.818  0.00  0.00    -0.047 C 
ATOM     63  H28 ROC d          20.714  23.000  19.600  0.00  0.00     0.037 H 
ATOM     64  H29 ROC d          20.141  24.512  20.381  0.00  0.00     0.037 H 
ATOM     65  C29 ROC d          22.773  24.865  19.718  0.00  0.00    -0.061 C 
ATOM     66  C33 ROC d          21.025  26.183  18.455  0.00  0.00    -0.027 C 
ATOM     67  H30 ROC d          21.849  24.268  17.895  0.00  0.00     0.040 H 
ATOM     68  C30 ROC d          22.621  25.814  20.886  0.00  0.00    -0.065 C 
ATOM     69  H31 ROC d          23.626  25.199  19.111  0.00  0.00     0.033 H 
ATOM     70  H32 ROC d          22.976  23.859  20.114  0.00  0.00     0.033 H 
ATOM     71  C31 ROC d          22.230  27.188  20.418  0.00  0.00    -0.065 C 
ATOM     72  H33 ROC d          23.577  25.876  21.425  0.00  0.00     0.033 H 
ATOM     73  H34 ROC d          21.843  25.429  21.562  0.00  0.00     0.033 H 
ATOM     74  C32 ROC d          20.916  27.045  19.663  0.00  0.00    -0.060 C 
ATOM     75  H35 ROC d          23.006  27.594  19.752  0.00  0.00     0.033 H 
ATOM     76  H36 ROC d          22.099  27.857  21.281  0.00  0.00     0.033 H 
ATOM     77  H37 ROC d          20.583  28.045  19.350  0.00  0.00     0.033 H 
ATOM     78  H38 ROC d          20.169  26.605  20.340  0.00  0.00     0.033 H 
ATOM     79  C34 ROC d          19.827  26.123  17.597  0.00  0.00     0.088 C 
ATOM     80  H39 ROC d          21.803  26.648  17.833  0.00  0.00     0.043 H 
ATOM     81  H40 ROC d          19.498  27.147  17.371  0.00  0.00     0.076 H 
ATOM     82  H41 ROC d          20.084  25.605  16.660  0.00  0.00     0.076 H 
ATOM     83  H24 ROC d          18.547  25.882  19.114  0.00  0.00     0.281 HD
BRANCH  59  84
ATOM     84  C26 ROC d          18.061  23.268  19.337  0.00  0.00     0.249 C 
ATOM     85  O5  ROC d          17.556  23.730  20.348  0.00  0.00    -0.271 OA
ATOM     86  N6  ROC d          17.669  22.099  18.773  0.00  0.00    -0.351 N 
ATOM     87  H42 ROC d          18.063  21.855  17.888  0.00  0.00     0.163 HD
BRANCH  86  88
ATOM     88  C35 ROC d          16.717  21.177  19.366  0.00  0.00     0.022 C 
BRANCH  88  89
ATOM     89  C36 ROC d          15.431  21.921  19.654  0.00  0.00    -0.054 C 
ATOM     90  H43 ROC d          15.666  22.910  20.074  0.00  0.00     0.030 H 
ATOM     91  H44 ROC d          14.830  21.349  20.377  0.00  0.00     0.030 H 
ATOM     92  H45 ROC d          14.863  22.046  18.721  0.00  0.00     0.030 H 
ENDBRANCH  88  89
BRANCH  88  93
ATOM     93  C37 ROC d          17.266  20.688  20.682  0.00  0.00    -0.054 C 
ATOM     94  H46 ROC d          16.642  19.863  21.055  0.00  0.00     0.030 H 
ATOM     95  H47 ROC d          17.259  21.512  21.411  0.00  0.00     0.030 H 
ATOM     96  H48 ROC d          18.297  20.332  20.539  0.00  0.00     0.030 H 
ENDBRANCH  88  93
BRANCH  88  97
ATOM     97  C38 ROC d          16.456  20.065  18.390  0.00  0.00    -0.054 C 
ATOM     98  H49 ROC d          16.717  19.101  18.853  0.00  0.00     0.030 H 
ATOM     99  H50 ROC d          17.070  20.217  17.489  0.00  0.00     0.030 H 
ATOM    100  H51 ROC d          15.392  20.062  18.113  0.00  0.00     0.030 H 
ENDBRANCH  88  97
ENDBRANCH  86  88
ENDBRANCH  59  84
ENDBRANCH  55  58
ENDBRANCH   1  55
TORSDOF 17
ENDMDL
