MODEL 1
REMARK VINA RESULT:      -5.5      0.000      0.000
REMARK  9 active torsions:
REMARK  status: ('A' for Active; 'I' for Inactive)
REMARK    1  A    between atoms: C1_1  and  C2_3 
REMARK    2  A    between atoms: C2_3  and  C3_4 
REMARK    3  A    between atoms: C3_4  and  C4_5 
REMARK    4  A    between atoms: C4_5  and  C5_6 
REMARK    5  A    between atoms: C5_6  and  C6_7 
REMARK    6  A    between atoms: C6_7  and  C7_8 
REMARK    7  A    between atoms: C7_8  and  C8_9 
REMARK    8  A    between atoms: C8_9  and  C9_10 
REMARK    9  A    between atoms: C9_10  and  C10_11 
ROOT
ATOM      1  C6  DKA d           1.415  -1.145  23.855  0.00  0.00    -0.065 C 
ATOM      2  H9  DKA d           0.512  -0.771  24.359  0.00  0.00     0.033 H 
ATOM      3  H10 DKA d           2.308  -0.742  24.356  0.00  0.00     0.033 H 
ENDROOT
BRANCH   1   4
ATOM      4  C5  DKA d           1.405  -0.673  22.400  0.00  0.00    -0.065 C 
ATOM      5  H7  DKA d           2.341  -0.992  21.918  0.00  0.00     0.033 H 
ATOM      6  H8  DKA d           0.550  -1.137  21.885  0.00  0.00     0.033 H 
BRANCH   4   7
ATOM      7  C4  DKA d           1.285   0.838  22.286  0.00  0.00    -0.065 C 
ATOM      8  H5  DKA d           1.036   1.098  21.247  0.00  0.00     0.033 H 
ATOM      9  H6  DKA d           0.483   1.184  22.953  0.00  0.00     0.033 H 
BRANCH   7  10
ATOM     10  C3  DKA d           2.587   1.534  22.672  0.00  0.00    -0.056 C 
ATOM     11  H3  DKA d           2.680   1.505  23.768  0.00  0.00     0.033 H 
ATOM     12  H4  DKA d           3.421   0.978  22.219  0.00  0.00     0.033 H 
BRANCH  10  13
ATOM     13  C2  DKA d           2.685   3.001  22.220  0.00  0.00     0.016 C 
ATOM     14  H1  DKA d           1.678   3.444  22.215  0.00  0.00     0.049 H 
ATOM     15  H2  DKA d           3.324   3.553  22.925  0.00  0.00     0.049 H 
BRANCH  13  16
ATOM     16  C1  DKA d           3.281   3.102  20.824  0.00  0.00     0.172 C 
ATOM     17  O1  DKA d           4.061   2.262  20.377  0.00  0.00    -0.648 OA
ATOM     18  O2  DKA d           3.002   4.122  20.007  0.00  0.00    -0.648 OA
ENDBRANCH  13  16
ENDBRANCH  10  13
ENDBRANCH   7  10
ENDBRANCH   4   7
ENDBRANCH   1   4
BRANCH   1  19
ATOM     19  C7  DKA d           1.439  -2.657  23.943  0.00  0.00    -0.065 C 
ATOM     20  H11 DKA d           2.355  -2.965  24.468  0.00  0.00     0.033 H 
ATOM     21  H12 DKA d           1.445  -3.069  22.922  0.00  0.00     0.033 H 
BRANCH  19  22
ATOM     22  C8  DKA d           0.234  -3.220  24.691  0.00  0.00    -0.065 C 
ATOM     23  H13 DKA d           0.533  -4.140  25.217  0.00  0.00     0.033 H 
ATOM     24  H14 DKA d          -0.562  -3.453  23.970  0.00  0.00     0.033 H 
BRANCH  22  25
ATOM     25  C9  DKA d          -0.289  -2.213  25.705  0.00  0.00    -0.069 C 
ATOM     26  H15 DKA d          -1.379  -2.121  25.585  0.00  0.00     0.032 H 
ATOM     27  H16 DKA d           0.184  -1.238  25.515  0.00  0.00     0.032 H 
BRANCH  25  28
ATOM     28  C10 DKA d           0.012  -2.634  27.124  0.00  0.00    -0.077 C 
ATOM     29  H17 DKA d           1.098  -2.594  27.295  0.00  0.00     0.027 H 
ATOM     30  H18 DKA d          -0.347  -3.660  27.287  0.00  0.00     0.027 H 
ATOM     31  H19 DKA d          -0.494  -1.953  27.824  0.00  0.00     0.027 H 
ENDBRANCH  25  28
ENDBRANCH  22  25
ENDBRANCH  19  22
ENDBRANCH   1  19
TORSDOF 9
ENDMDL
MODEL 2
REMARK VINA RESULT:      -5.4      4.192      6.712
REMARK  9 active torsions:
REMARK  status: ('A' for Active; 'I' for Inactive)
REMARK    1  A    between atoms: C1_1  and  C2_3 
REMARK    2  A    between atoms: C2_3  and  C3_4 
REMARK    3  A    between atoms: C3_4  and  C4_5 
REMARK    4  A    between atoms: C4_5  and  C5_6 
REMARK    5  A    between atoms: C5_6  and  C6_7 
REMARK    6  A    between atoms: C6_7  and  C7_8 
REMARK    7  A    between atoms: C7_8  and  C8_9 
REMARK    8  A    between atoms: C8_9  and  C9_10 
REMARK    9  A    between atoms: C9_10  and  C10_11 
ROOT
ATOM      1  C6  DKA d           1.595   0.159  22.607  0.00  0.00    -0.065 C 
ATOM      2  H9  DKA d           1.377   0.188  23.685  0.00  0.00     0.033 H 
ATOM      3  H10 DKA d           0.736   0.559  22.048  0.00  0.00     0.033 H 
ENDROOT
BRANCH   1   4
ATOM      4  C5  DKA d           1.832  -1.292  22.185  0.00  0.00    -0.065 C 
ATOM      5  H7  DKA d           1.224  -1.505  21.293  0.00  0.00     0.033 H 
ATOM      6  H8  DKA d           2.897  -1.419  21.942  0.00  0.00     0.033 H 
BRANCH   4   7
ATOM      7  C4  DKA d           1.457  -2.278  23.280  0.00  0.00    -0.065 C 
ATOM      8  H5  DKA d           0.527  -2.790  22.996  0.00  0.00     0.033 H 
ATOM      9  H6  DKA d           2.265  -3.016  23.387  0.00  0.00     0.033 H 
BRANCH   7  10
ATOM     10  C3  DKA d           1.247  -1.576  24.618  0.00  0.00    -0.056 C 
ATOM     11  H3  DKA d           2.133  -1.759  25.245  0.00  0.00     0.033 H 
ATOM     12  H4  DKA d           1.150  -0.496  24.429  0.00  0.00     0.033 H 
BRANCH  10  13
ATOM     13  C2  DKA d           0.003  -2.041  25.395  0.00  0.00     0.016 C 
ATOM     14  H1  DKA d          -0.465  -1.171  25.879  0.00  0.00     0.049 H 
ATOM     15  H2  DKA d          -0.710  -2.497  24.693  0.00  0.00     0.049 H 
BRANCH  13  16
ATOM     16  C1  DKA d           0.377  -3.063  26.459  0.00  0.00     0.172 C 
ATOM     17  O1  DKA d           0.425  -2.782  27.656  0.00  0.00    -0.648 OA
ATOM     18  O2  DKA d           0.690  -4.325  26.150  0.00  0.00    -0.648 OA
ENDBRANCH  13  16
ENDBRANCH  10  13
ENDBRANCH   7  10
ENDBRANCH   4   7
ENDBRANCH   1   4
BRANCH   1  19
ATOM     19  C7  DKA d           2.810   1.019  22.326  0.00  0.00    -0.065 C 
ATOM     20  H11 DKA d           2.685   1.495  21.342  0.00  0.00     0.033 H 
ATOM     21  H12 DKA d           3.702   0.375  22.312  0.00  0.00     0.033 H 
BRANCH  19  22
ATOM     22  C8  DKA d           3.011   2.110  23.374  0.00  0.00    -0.065 C 
ATOM     23  H13 DKA d           3.886   1.859  23.994  0.00  0.00     0.033 H 
ATOM     24  H14 DKA d           2.116   2.169  24.010  0.00  0.00     0.033 H 
BRANCH  22  25
ATOM     25  C9  DKA d           3.241   3.460  22.710  0.00  0.00    -0.069 C 
ATOM     26  H15 DKA d           4.133   3.393  22.069  0.00  0.00     0.032 H 
ATOM     27  H16 DKA d           3.406   4.218  23.490  0.00  0.00     0.032 H 
BRANCH  25  28
ATOM     28  C10 DKA d           2.063   3.880  21.863  0.00  0.00    -0.077 C 
ATOM     29  H17 DKA d           2.219   4.906  21.501  0.00  0.00     0.027 H 
ATOM     30  H18 DKA d           1.144   3.840  22.468  0.00  0.00     0.027 H 
ATOM     31  H19 DKA d           1.966   3.199  21.005  0.00  0.00     0.027 H 
ENDBRANCH  25  28
ENDBRANCH  22  25
ENDBRANCH  19  22
ENDBRANCH   1  19
TORSDOF 9
ENDMDL
MODEL 3
REMARK VINA RESULT:      -5.3      1.563      1.851
REMARK  9 active torsions:
REMARK  status: ('A' for Active; 'I' for Inactive)
REMARK    1  A    between atoms: C1_1  and  C2_3 
REMARK    2  A    between atoms: C2_3  and  C3_4 
REMARK    3  A    between atoms: C3_4  and  C4_5 
REMARK    4  A    between atoms: C4_5  and  C5_6 
REMARK    5  A    between atoms: C5_6  and  C6_7 
REMARK    6  A    between atoms: C6_7  and  C7_8 
REMARK    7  A    between atoms: C7_8  and  C8_9 
REMARK    8  A    between atoms: C8_9  and  C9_10 
REMARK    9  A    between atoms: C9_10  and  C10_11 
ROOT
ATOM      1  C6  DKA d           1.683  -0.786  23.799  0.00  0.00    -0.065 C 
ATOM      2  H9  DKA d           1.235  -0.092  24.526  0.00  0.00     0.033 H 
ATOM      3  H10 DKA d           2.779  -0.751  23.887  0.00  0.00     0.033 H 
ENDROOT
BRANCH   1   4
ATOM      4  C5  DKA d           1.281  -0.357  22.388  0.00  0.00    -0.065 C 
ATOM      5  H7  DKA d           0.312  -0.816  22.141  0.00  0.00     0.033 H 
ATOM      6  H8  DKA d           1.184   0.739  22.365  0.00  0.00     0.033 H 
BRANCH   4   7
ATOM      7  C4  DKA d           2.303  -0.780  21.345  0.00  0.00    -0.065 C 
ATOM      8  H5  DKA d           2.494  -1.858  21.450  0.00  0.00     0.033 H 
ATOM      9  H6  DKA d           1.898  -0.575  20.344  0.00  0.00     0.033 H 
BRANCH   7  10
ATOM     10  C3  DKA d           3.619  -0.025  21.512  0.00  0.00    -0.056 C 
ATOM     11  H3  DKA d           3.890  -0.039  22.578  0.00  0.00     0.033 H 
ATOM     12  H4  DKA d           4.391  -0.549  20.930  0.00  0.00     0.033 H 
BRANCH  10  13
ATOM     13  C2  DKA d           3.577   1.441  21.046  0.00  0.00     0.016 C 
ATOM     14  H1  DKA d           4.271   1.570  20.202  0.00  0.00     0.049 H 
ATOM     15  H2  DKA d           2.555   1.687  20.721  0.00  0.00     0.049 H 
BRANCH  13  16
ATOM     16  C1  DKA d           3.981   2.381  22.171  0.00  0.00     0.172 C 
ATOM     17  O1  DKA d           4.611   3.419  21.971  0.00  0.00    -0.648 OA
ATOM     18  O2  DKA d           3.685   2.125  23.449  0.00  0.00    -0.648 OA
ENDBRANCH  13  16
ENDBRANCH  10  13
ENDBRANCH   7  10
ENDBRANCH   4   7
ENDBRANCH   1   4
BRANCH   1  19
ATOM     19  C7  DKA d           1.208  -2.192  24.103  0.00  0.00    -0.065 C 
ATOM     20  H11 DKA d           1.831  -2.903  23.542  0.00  0.00     0.033 H 
ATOM     21  H12 DKA d           0.160  -2.287  23.782  0.00  0.00     0.033 H 
BRANCH  19  22
ATOM     22  C8  DKA d           1.296  -2.532  25.589  0.00  0.00    -0.065 C 
ATOM     23  H13 DKA d           2.083  -1.920  26.054  0.00  0.00     0.033 H 
ATOM     24  H14 DKA d           1.545  -3.597  25.701  0.00  0.00     0.033 H 
BRANCH  22  25
ATOM     25  C9  DKA d          -0.029  -2.254  26.285  0.00  0.00    -0.069 C 
ATOM     26  H15 DKA d          -0.851  -2.547  25.615  0.00  0.00     0.032 H 
ATOM     27  H16 DKA d          -0.098  -1.177  26.500  0.00  0.00     0.032 H 
BRANCH  25  28
ATOM     28  C10 DKA d          -0.157  -3.020  27.580  0.00  0.00    -0.077 C 
ATOM     29  H17 DKA d          -1.067  -3.637  27.552  0.00  0.00     0.027 H 
ATOM     30  H18 DKA d          -0.218  -2.313  28.420  0.00  0.00     0.027 H 
ATOM     31  H19 DKA d           0.722  -3.669  27.710  0.00  0.00     0.027 H 
ENDBRANCH  25  28
ENDBRANCH  22  25
ENDBRANCH  19  22
ENDBRANCH   1  19
TORSDOF 9
ENDMDL
MODEL 4
REMARK VINA RESULT:      -4.6      2.331      2.830
REMARK  9 active torsions:
REMARK  status: ('A' for Active; 'I' for Inactive)
REMARK    1  A    between atoms: C1_1  and  C2_3 
REMARK    2  A    between atoms: C2_3  and  C3_4 
REMARK    3  A    between atoms: C3_4  and  C4_5 
REMARK    4  A    between atoms: C4_5  and  C5_6 
REMARK    5  A    between atoms: C5_6  and  C6_7 
REMARK    6  A    between atoms: C6_7  and  C7_8 
REMARK    7  A    between atoms: C7_8  and  C8_9 
REMARK    8  A    between atoms: C8_9  and  C9_10 
REMARK    9  A    between atoms: C9_10  and  C10_11 
ROOT
ATOM      1  C6  DKA d           1.457  -1.101  22.895  0.00  0.00    -0.065 C 
ATOM      2  H9  DKA d           2.412  -1.463  22.487  0.00  0.00     0.033 H 
ATOM      3  H10 DKA d           0.632  -1.704  22.488  0.00  0.00     0.033 H 
ENDROOT
BRANCH   1   4
ATOM      4  C5  DKA d           1.259   0.358  22.482  0.00  0.00    -0.065 C 
ATOM      5  H7  DKA d           1.046   0.395  21.403  0.00  0.00     0.033 H 
ATOM      6  H8  DKA d           0.406   0.771  23.039  0.00  0.00     0.033 H 
BRANCH   4   7
ATOM      7  C4  DKA d           2.487   1.208  22.767  0.00  0.00    -0.065 C 
ATOM      8  H5  DKA d           2.290   2.240  22.441  0.00  0.00     0.033 H 
ATOM      9  H6  DKA d           2.687   1.196  23.847  0.00  0.00     0.033 H 
BRANCH   7  10
ATOM     10  C3  DKA d           3.716   0.682  22.029  0.00  0.00    -0.056 C 
ATOM     11  H3  DKA d           4.548   1.378  22.210  0.00  0.00     0.033 H 
ATOM     12  H4  DKA d           3.968  -0.306  22.443  0.00  0.00     0.033 H 
BRANCH  10  13
ATOM     13  C2  DKA d           3.533   0.535  20.509  0.00  0.00     0.016 C 
ATOM     14  H1  DKA d           2.541   0.917  20.227  0.00  0.00     0.049 H 
ATOM     15  H2  DKA d           4.311   1.119  19.994  0.00  0.00     0.049 H 
BRANCH  13  16
ATOM     16  C1  DKA d           3.644  -0.922  20.086  0.00  0.00     0.172 C 
ATOM     17  O1  DKA d           2.848  -1.447  19.309  0.00  0.00    -0.648 OA
ATOM     18  O2  DKA d           4.611  -1.722  20.548  0.00  0.00    -0.648 OA
ENDBRANCH  13  16
ENDBRANCH  10  13
ENDBRANCH   7  10
ENDBRANCH   4   7
ENDBRANCH   1   4
BRANCH   1  19
ATOM     19  C7  DKA d           1.477  -1.247  24.403  0.00  0.00    -0.065 C 
ATOM     20  H11 DKA d           1.726  -0.273  24.848  0.00  0.00     0.033 H 
ATOM     21  H12 DKA d           2.249  -1.983  24.675  0.00  0.00     0.033 H 
BRANCH  19  22
ATOM     22  C8  DKA d           0.137  -1.714  24.965  0.00  0.00    -0.065 C 
ATOM     23  H13 DKA d          -0.420  -2.244  24.178  0.00  0.00     0.033 H 
ATOM     24  H14 DKA d          -0.440  -0.839  25.296  0.00  0.00     0.033 H 
BRANCH  22  25
ATOM     25  C9  DKA d           0.345  -2.651  26.147  0.00  0.00    -0.069 C 
ATOM     26  H15 DKA d          -0.595  -2.725  26.711  0.00  0.00     0.032 H 
ATOM     27  H16 DKA d           1.131  -2.235  26.796  0.00  0.00     0.032 H 
BRANCH  25  28
ATOM     28  C10 DKA d           0.760  -4.034  25.703  0.00  0.00    -0.077 C 
ATOM     29  H17 DKA d           1.065  -4.624  26.580  0.00  0.00     0.027 H 
ATOM     30  H18 DKA d           1.604  -3.957  25.001  0.00  0.00     0.027 H 
ATOM     31  H19 DKA d          -0.087  -4.528  25.205  0.00  0.00     0.027 H 
ENDBRANCH  25  28
ENDBRANCH  22  25
ENDBRANCH  19  22
ENDBRANCH   1  19
TORSDOF 9
ENDMDL
MODEL 5
REMARK VINA RESULT:      -4.4      3.975      6.461
REMARK  9 active torsions:
REMARK  status: ('A' for Active; 'I' for Inactive)
REMARK    1  A    between atoms: C1_1  and  C2_3 
REMARK    2  A    between atoms: C2_3  and  C3_4 
REMARK    3  A    between atoms: C3_4  and  C4_5 
REMARK    4  A    between atoms: C4_5  and  C5_6 
REMARK    5  A    between atoms: C5_6  and  C6_7 
REMARK    6  A    between atoms: C6_7  and  C7_8 
REMARK    7  A    between atoms: C7_8  and  C8_9 
REMARK    8  A    between atoms: C8_9  and  C9_10 
REMARK    9  A    between atoms: C9_10  and  C10_11 
ROOT
ATOM      1  C6  DKA d           3.347  -0.950  21.705  0.00  0.00    -0.065 C 
ATOM      2  H9  DKA d           3.887  -1.887  21.500  0.00  0.00     0.033 H 
ATOM      3  H10 DKA d           3.838  -0.418  22.534  0.00  0.00     0.033 H 
ENDROOT
BRANCH   1   4
ATOM      4  C5  DKA d           1.909  -1.282  22.108  0.00  0.00    -0.065 C 
ATOM      5  H7  DKA d           1.239  -1.021  21.275  0.00  0.00     0.033 H 
ATOM      6  H8  DKA d           1.839  -2.360  22.311  0.00  0.00     0.033 H 
BRANCH   4   7
ATOM      7  C4  DKA d           1.468  -0.519  23.347  0.00  0.00    -0.065 C 
ATOM      8  H5  DKA d           2.360  -0.215  23.915  0.00  0.00     0.033 H 
ATOM      9  H6  DKA d           0.908   0.374  23.036  0.00  0.00     0.033 H 
BRANCH   7  10
ATOM     10  C3  DKA d           0.578  -1.375  24.243  0.00  0.00    -0.056 C 
ATOM     11  H3  DKA d          -0.093  -0.705  24.801  0.00  0.00     0.033 H 
ATOM     12  H4  DKA d          -0.018  -2.040  23.601  0.00  0.00     0.033 H 
BRANCH  10  13
ATOM     13  C2  DKA d           1.341  -2.244  25.259  0.00  0.00     0.016 C 
ATOM     14  H1  DKA d           2.390  -2.334  24.938  0.00  0.00     0.049 H 
ATOM     15  H2  DKA d           1.301  -1.762  26.247  0.00  0.00     0.049 H 
BRANCH  13  16
ATOM     16  C1  DKA d           0.728  -3.633  25.356  0.00  0.00     0.172 C 
ATOM     17  O1  DKA d           0.170  -4.177  24.404  0.00  0.00    -0.648 OA
ATOM     18  O2  DKA d           0.748  -4.338  26.492  0.00  0.00    -0.648 OA
ENDBRANCH  13  16
ENDBRANCH  10  13
ENDBRANCH   7  10
ENDBRANCH   4   7
ENDBRANCH   1   4
BRANCH   1  19
ATOM     19  C7  DKA d           3.384  -0.078  20.467  0.00  0.00    -0.065 C 
ATOM     20  H11 DKA d           2.475  -0.265  19.877  0.00  0.00     0.033 H 
ATOM     21  H12 DKA d           4.270  -0.348  19.873  0.00  0.00     0.033 H 
BRANCH  19  22
ATOM     22  C8  DKA d           3.453   1.410  20.800  0.00  0.00    -0.065 C 
ATOM     23  H13 DKA d           2.431   1.817  20.848  0.00  0.00     0.033 H 
ATOM     24  H14 DKA d           4.018   1.930  20.013  0.00  0.00     0.033 H 
BRANCH  22  25
ATOM     25  C9  DKA d           4.142   1.631  22.139  0.00  0.00    -0.069 C 
ATOM     26  H15 DKA d           5.134   2.071  21.960  0.00  0.00     0.032 H 
ATOM     27  H16 DKA d           4.256   0.661  22.645  0.00  0.00     0.032 H 
BRANCH  25  28
ATOM     28  C10 DKA d           3.351   2.557  23.033  0.00  0.00    -0.077 C 
ATOM     29  H17 DKA d           3.807   2.577  24.034  0.00  0.00     0.027 H 
ATOM     30  H18 DKA d           2.314   2.197  23.110  0.00  0.00     0.027 H 
ATOM     31  H19 DKA d           3.356   3.571  22.607  0.00  0.00     0.027 H 
ENDBRANCH  25  28
ENDBRANCH  22  25
ENDBRANCH  19  22
ENDBRANCH   1  19
TORSDOF 9
ENDMDL
MODEL 6
REMARK VINA RESULT:      -4.3      4.358      6.753
REMARK  9 active torsions:
REMARK  status: ('A' for Active; 'I' for Inactive)
REMARK    1  A    between atoms: C1_1  and  C2_3 
REMARK    2  A    between atoms: C2_3  and  C3_4 
REMARK    3  A    between atoms: C3_4  and  C4_5 
REMARK    4  A    between atoms: C4_5  and  C5_6 
REMARK    5  A    between atoms: C5_6  and  C6_7 
REMARK    6  A    between atoms: C6_7  and  C7_8 
REMARK    7  A    between atoms: C7_8  and  C8_9 
REMARK    8  A    between atoms: C8_9  and  C9_10 
REMARK    9  A    between atoms: C9_10  and  C10_11 
ROOT
ATOM      1  C6  DKA d           1.511  -0.388  22.152  0.00  0.00    -0.065 C 
ATOM      2  H9  DKA d           0.979   0.520  21.831  0.00  0.00     0.033 H 
ATOM      3  H10 DKA d           0.781  -1.186  22.358  0.00  0.00     0.033 H 
ENDROOT
BRANCH   1   4
ATOM      4  C5  DKA d           2.291  -0.084  23.431  0.00  0.00    -0.065 C 
ATOM      5  H7  DKA d           3.357  -0.287  23.252  0.00  0.00     0.033 H 
ATOM      6  H8  DKA d           2.157   0.979  23.683  0.00  0.00     0.033 H 
BRANCH   4   7
ATOM      7  C4  DKA d           1.823  -0.927  24.606  0.00  0.00    -0.065 C 
ATOM      8  H5  DKA d           2.700  -1.372  25.098  0.00  0.00     0.033 H 
ATOM      9  H6  DKA d           1.289  -0.283  25.319  0.00  0.00     0.033 H 
BRANCH   7  10
ATOM     10  C3  DKA d           0.888  -2.046  24.154  0.00  0.00    -0.056 C 
ATOM     11  H3  DKA d           0.422  -1.743  23.205  0.00  0.00     0.033 H 
ATOM     12  H4  DKA d           1.490  -2.953  23.994  0.00  0.00     0.033 H 
BRANCH  10  13
ATOM     13  C2  DKA d          -0.233  -2.383  25.153  0.00  0.00     0.016 C 
ATOM     14  H1  DKA d          -0.651  -1.448  25.554  0.00  0.00     0.049 H 
ATOM     15  H2  DKA d          -1.024  -2.943  24.631  0.00  0.00     0.049 H 
BRANCH  13  16
ATOM     16  C1  DKA d           0.297  -3.226  26.302  0.00  0.00     0.172 C 
ATOM     17  O1  DKA d           0.550  -4.424  26.181  0.00  0.00    -0.648 OA
ATOM     18  O2  DKA d           0.506  -2.714  27.519  0.00  0.00    -0.648 OA
ENDBRANCH  13  16
ENDBRANCH  10  13
ENDBRANCH   7  10
ENDBRANCH   4   7
ENDBRANCH   1   4
BRANCH   1  19
ATOM     19  C7  DKA d           2.434  -0.838  21.039  0.00  0.00    -0.065 C 
ATOM     20  H11 DKA d           1.894  -0.770  20.083  0.00  0.00     0.033 H 
ATOM     21  H12 DKA d           2.724  -1.884  21.222  0.00  0.00     0.033 H 
BRANCH  19  22
ATOM     22  C8  DKA d           3.699   0.011  20.946  0.00  0.00    -0.065 C 
ATOM     23  H13 DKA d           4.244  -0.047  21.901  0.00  0.00     0.033 H 
ATOM     24  H14 DKA d           3.419   1.055  20.747  0.00  0.00     0.033 H 
BRANCH  22  25
ATOM     25  C9  DKA d           4.601  -0.487  19.826  0.00  0.00    -0.069 C 
ATOM     26  H15 DKA d           5.629  -0.571  20.208  0.00  0.00     0.032 H 
ATOM     27  H16 DKA d           4.576   0.239  19.000  0.00  0.00     0.032 H 
BRANCH  25  28
ATOM     28  C10 DKA d           4.161  -1.834  19.305  0.00  0.00    -0.077 C 
ATOM     29  H17 DKA d           4.197  -2.572  20.120  0.00  0.00     0.027 H 
ATOM     30  H18 DKA d           4.834  -2.152  18.494  0.00  0.00     0.027 H 
ATOM     31  H19 DKA d           3.133  -1.761  18.921  0.00  0.00     0.027 H 
ENDBRANCH  25  28
ENDBRANCH  22  25
ENDBRANCH  19  22
ENDBRANCH   1  19
TORSDOF 9
ENDMDL
MODEL 7
REMARK VINA RESULT:      -3.5      2.039      3.333
REMARK  9 active torsions:
REMARK  status: ('A' for Active; 'I' for Inactive)
REMARK    1  A    between atoms: C1_1  and  C2_3 
REMARK    2  A    between atoms: C2_3  and  C3_4 
REMARK    3  A    between atoms: C3_4  and  C4_5 
REMARK    4  A    between atoms: C4_5  and  C5_6 
REMARK    5  A    between atoms: C5_6  and  C6_7 
REMARK    6  A    between atoms: C6_7  and  C7_8 
REMARK    7  A    between atoms: C7_8  and  C8_9 
REMARK    8  A    between atoms: C8_9  and  C9_10 
REMARK    9  A    between atoms: C9_10  and  C10_11 
ROOT
ATOM      1  C6  DKA d           3.602  -1.336  21.588  0.00  0.00    -0.065 C 
ATOM      2  H9  DKA d           4.490  -1.842  21.994  0.00  0.00     0.033 H 
ATOM      3  H10 DKA d           2.697  -1.879  21.900  0.00  0.00     0.033 H 
ENDROOT
BRANCH   1   4
ATOM      4  C5  DKA d           3.682  -1.334  20.062  0.00  0.00    -0.065 C 
ATOM      5  H7  DKA d           4.172  -2.262  19.732  0.00  0.00     0.033 H 
ATOM      6  H8  DKA d           2.661  -1.293  19.654  0.00  0.00     0.033 H 
BRANCH   4   7
ATOM      7  C4  DKA d           4.469  -0.148  19.528  0.00  0.00    -0.065 C 
ATOM      8  H5  DKA d           5.266   0.102  20.244  0.00  0.00     0.033 H 
ATOM      9  H6  DKA d           4.917  -0.422  18.562  0.00  0.00     0.033 H 
BRANCH   7  10
ATOM     10  C3  DKA d           3.577   1.074  19.332  0.00  0.00    -0.056 C 
ATOM     11  H3  DKA d           3.055   0.967  18.370  0.00  0.00     0.033 H 
ATOM     12  H4  DKA d           2.840   1.097  20.149  0.00  0.00     0.033 H 
BRANCH  10  13
ATOM     13  C2  DKA d           4.328   2.418  19.325  0.00  0.00     0.016 C 
ATOM     14  H1  DKA d           5.386   2.240  19.565  0.00  0.00     0.049 H 
ATOM     15  H2  DKA d           4.250   2.868  18.324  0.00  0.00     0.049 H 
BRANCH  13  16
ATOM     16  C1  DKA d           3.738   3.376  20.349  0.00  0.00     0.172 C 
ATOM     17  O1  DKA d           2.769   4.092  20.101  0.00  0.00    -0.648 OA
ATOM     18  O2  DKA d           4.252   3.505  21.576  0.00  0.00    -0.648 OA
ENDBRANCH  13  16
ENDBRANCH  10  13
ENDBRANCH   7  10
ENDBRANCH   4   7
ENDBRANCH   1   4
BRANCH   1  19
ATOM     19  C7  DKA d           3.544   0.074  22.138  0.00  0.00    -0.065 C 
ATOM     20  H11 DKA d           3.620   0.783  21.300  0.00  0.00     0.033 H 
ATOM     21  H12 DKA d           4.394   0.221  22.821  0.00  0.00     0.033 H 
BRANCH  19  22
ATOM     22  C8  DKA d           2.251   0.355  22.900  0.00  0.00    -0.065 C 
ATOM     23  H13 DKA d           1.781   1.262  22.491  0.00  0.00     0.033 H 
ATOM     24  H14 DKA d           2.485   0.510  23.963  0.00  0.00     0.033 H 
BRANCH  22  25
ATOM     25  C9  DKA d           1.284  -0.812  22.766  0.00  0.00    -0.069 C 
ATOM     26  H15 DKA d           1.718  -1.558  22.084  0.00  0.00     0.032 H 
ATOM     27  H16 DKA d           0.335  -0.442  22.349  0.00  0.00     0.032 H 
BRANCH  25  28
ATOM     28  C10 DKA d           1.008  -1.471  24.098  0.00  0.00    -0.077 C 
ATOM     29  H17 DKA d           1.033  -0.712  24.893  0.00  0.00     0.027 H 
ATOM     30  H18 DKA d           1.774  -2.235  24.295  0.00  0.00     0.027 H 
ATOM     31  H19 DKA d           0.015  -1.944  24.074  0.00  0.00     0.027 H 
ENDBRANCH  25  28
ENDBRANCH  22  25
ENDBRANCH  19  22
ENDBRANCH   1  19
TORSDOF 9
ENDMDL
MODEL 8
REMARK VINA RESULT:      -2.7      3.235      5.687
REMARK  9 active torsions:
REMARK  status: ('A' for Active; 'I' for Inactive)
REMARK    1  A    between atoms: C1_1  and  C2_3 
REMARK    2  A    between atoms: C2_3  and  C3_4 
REMARK    3  A    between atoms: C3_4  and  C4_5 
REMARK    4  A    between atoms: C4_5  and  C5_6 
REMARK    5  A    between atoms: C5_6  and  C6_7 
REMARK    6  A    between atoms: C6_7  and  C7_8 
REMARK    7  A    between atoms: C7_8  and  C8_9 
REMARK    8  A    between atoms: C8_9  and  C9_10 
REMARK    9  A    between atoms: C9_10  and  C10_11 
ROOT
ATOM      1  C6  DKA d           2.036   2.967  22.452  0.00  0.00    -0.065 C 
ATOM      2  H9  DKA d           3.070   2.598  22.381  0.00  0.00     0.033 H 
ATOM      3  H10 DKA d           1.844   3.324  23.475  0.00  0.00     0.033 H 
ENDROOT
BRANCH   1   4
ATOM      4  C5  DKA d           1.075   1.822  22.135  0.00  0.00    -0.065 C 
ATOM      5  H7  DKA d           0.278   1.808  22.894  0.00  0.00     0.033 H 
ATOM      6  H8  DKA d           0.633   1.996  21.142  0.00  0.00     0.033 H 
BRANCH   4   7
ATOM      7  C4  DKA d           1.770   0.470  22.132  0.00  0.00    -0.065 C 
ATOM      8  H5  DKA d           1.242  -0.205  22.821  0.00  0.00     0.033 H 
ATOM      9  H6  DKA d           1.739   0.055  21.115  0.00  0.00     0.033 H 
BRANCH   7  10
ATOM     10  C3  DKA d           3.226   0.589  22.574  0.00  0.00    -0.056 C 
ATOM     11  H3  DKA d           3.468   1.657  22.679  0.00  0.00     0.033 H 
ATOM     12  H4  DKA d           3.330   0.092  23.550  0.00  0.00     0.033 H 
BRANCH  10  13
ATOM     13  C2  DKA d           4.241  -0.040  21.603  0.00  0.00     0.016 C 
ATOM     14  H1  DKA d           5.106   0.632  21.502  0.00  0.00     0.049 H 
ATOM     15  H2  DKA d           4.574  -1.008  22.006  0.00  0.00     0.049 H 
BRANCH  13  16
ATOM     16  C1  DKA d           3.619  -0.260  20.232  0.00  0.00     0.172 C 
ATOM     17  O1  DKA d           3.686   0.578  19.334  0.00  0.00    -0.648 OA
ATOM     18  O2  DKA d           2.948  -1.376  19.930  0.00  0.00    -0.648 OA
ENDBRANCH  13  16
ENDBRANCH  10  13
ENDBRANCH   7  10
ENDBRANCH   4   7
ENDBRANCH   1   4
BRANCH   1  19
ATOM     19  C7  DKA d           1.857   4.120  21.486  0.00  0.00    -0.065 C 
ATOM     20  H11 DKA d           2.160   5.051  21.987  0.00  0.00     0.033 H 
ATOM     21  H12 DKA d           0.795   4.183  21.205  0.00  0.00     0.033 H 
BRANCH  19  22
ATOM     22  C8  DKA d           2.689   3.956  20.217  0.00  0.00    -0.065 C 
ATOM     23  H13 DKA d           2.654   4.892  19.638  0.00  0.00     0.033 H 
ATOM     24  H14 DKA d           2.272   3.137  19.614  0.00  0.00     0.033 H 
BRANCH  22  25
ATOM     25  C9  DKA d           4.137   3.636  20.560  0.00  0.00    -0.069 C 
ATOM     26  H15 DKA d           4.793   4.124  19.825  0.00  0.00     0.032 H 
ATOM     27  H16 DKA d           4.282   2.546  20.513  0.00  0.00     0.032 H 
BRANCH  25  28
ATOM     28  C10 DKA d           4.509   4.118  21.942  0.00  0.00    -0.077 C 
ATOM     29  H17 DKA d           3.603   4.453  22.469  0.00  0.00     0.027 H 
ATOM     30  H18 DKA d           5.217   4.956  21.861  0.00  0.00     0.027 H 
ATOM     31  H19 DKA d           4.977   3.296  22.504  0.00  0.00     0.027 H 
ENDBRANCH  25  28
ENDBRANCH  22  25
ENDBRANCH  19  22
ENDBRANCH   1  19
TORSDOF 9
ENDMDL
