MODEL 1
REMARK VINA RESULT:      -4.2      0.000      0.000
REMARK  8 active torsions:
REMARK  status: ('A' for Active; 'I' for Inactive)
REMARK    1  A    between atoms: C5'_1  and  C4'_2 
REMARK    2  A    between atoms: C4'_2  and  O2'_3 
REMARK    3  A    between atoms: O2'_3  and  C3'_4 
REMARK    4  A    between atoms: C3'_4  and  C2'_6 
REMARK    5  A    between atoms: C2'_6  and  C1'_7 
REMARK    6  A    between atoms: C1'_7  and  C1_8 
REMARK    7  A    between atoms: C4_12  and  O4_13 
REMARK    8  A    between atoms: C3_14  and  O3_15 
ROOT
ATOM      1  C1' MOL d           7.214 -17.095 117.137  0.00  0.00    -0.067 C 
ATOM      2  H7  MOL d           7.184 -16.237 117.806  0.00  0.00     0.085 H 
ENDROOT
BRANCH   1   3
ATOM      3  C2' MOL d           7.866 -18.432 117.490  0.00  0.00    -0.010 C 
ATOM      4  H6  MOL d           8.020 -19.251 116.789  0.00  0.00     0.092 H 
BRANCH   3   5
ATOM      5  C3' MOL d           8.272 -18.459 118.964  0.00  0.00     0.282 C 
ATOM      6  O1' MOL d           8.031 -17.506 119.705  0.00  0.00    -0.260 OA
BRANCH   5   7
ATOM      7  O2' MOL d           8.891 -19.570 119.443  0.00  0.00    -0.319 OA
BRANCH   7   8
ATOM      8  C4' MOL d           9.009 -19.531 120.870  0.00  0.00     0.026 C 
ATOM      9  H4  MOL d           9.845 -18.877 121.158  0.00  0.00     0.074 H 
ATOM     10  H5  MOL d           8.076 -19.150 121.311  0.00  0.00     0.074 H 
BRANCH   8  11
ATOM     11  C5' MOL d           9.273 -20.958 121.361  0.00  0.00    -0.056 C 
ATOM     12  H1  MOL d           9.367 -20.957 122.457  0.00  0.00     0.030 H 
ATOM     13  H2  MOL d          10.204 -21.334 120.912  0.00  0.00     0.030 H 
ATOM     14  H3  MOL d           8.436 -21.608 121.066  0.00  0.00     0.030 H 
ENDBRANCH   8  11
ENDBRANCH   7   8
ENDBRANCH   5   7
ENDBRANCH   3   5
ENDBRANCH   1   3
BRANCH   1  15
ATOM     15  C1  MOL d           6.612 -17.108 115.734  0.00  0.00    -0.033 A 
ATOM     16  C2  MOL d           6.752 -18.205 114.891  0.00  0.00    -0.038 A 
ATOM     17  C3  MOL d           6.119 -18.214 113.650  0.00  0.00     0.099 A 
ATOM     18  H8  MOL d           7.353 -19.053 115.199  0.00  0.00     0.089 H 
ATOM     19  C4  MOL d           5.354 -17.124 113.252  0.00  0.00     0.098 A 
ATOM     20  C5  MOL d           5.219 -16.023 114.091  0.00  0.00    -0.047 A 
ATOM     21  C6  MOL d           5.850 -16.017 115.332  0.00  0.00    -0.070 A 
ATOM     22  H10 MOL d           4.624 -15.172 113.780  0.00  0.00     0.087 H 
ATOM     23  H9  MOL d           5.746 -15.159 115.987  0.00  0.00     0.084 H 
BRANCH  17  24
ATOM     24  O3  MOL d           6.223 -19.288 112.823  0.00  0.00    -0.358 OA
ATOM     25  H12 MOL d           6.774 -19.947 113.229  0.00  0.00     0.217 HD
ENDBRANCH  17  24
BRANCH  19  26
ATOM     26  O4  MOL d           4.739 -17.132 112.040  0.00  0.00    -0.358 OA
ATOM     27  H11 MOL d           4.931 -17.950 111.595  0.00  0.00     0.217 HD
ENDBRANCH  19  26
ENDBRANCH   1  15
TORSDOF 8
ENDMDL
