MODEL 1
REMARK VINA RESULT:      -4.8      0.000      0.000
REMARK  8 active torsions:
REMARK  status: ('A' for Active; 'I' for Inactive)
REMARK    1  A    between atoms: C5'_1  and  C4'_2 
REMARK    2  A    between atoms: C4'_2  and  O2'_3 
REMARK    3  A    between atoms: O2'_3  and  C3'_4 
REMARK    4  A    between atoms: C3'_4  and  C2'_6 
REMARK    5  A    between atoms: C2'_6  and  C1'_7 
REMARK    6  A    between atoms: C1'_7  and  C1_8 
REMARK    7  A    between atoms: C4_12  and  O4_13 
REMARK    8  A    between atoms: C3_14  and  O3_15 
ROOT
ATOM      1  C1' MOL d           6.957 -16.383 116.629  0.00  0.00    -0.067 C 
ATOM      2  H7  MOL d           7.115 -15.408 117.086  0.00  0.00     0.085 H 
ENDROOT
BRANCH   1   3
ATOM      3  C2' MOL d           6.892 -17.694 117.411  0.00  0.00    -0.010 C 
ATOM      4  H6  MOL d           6.408 -18.604 117.058  0.00  0.00     0.092 H 
BRANCH   3   5
ATOM      5  C3' MOL d           7.600 -17.551 118.759  0.00  0.00     0.282 C 
ATOM      6  O1' MOL d           7.341 -16.615 119.515  0.00  0.00    -0.260 OA
BRANCH   5   7
ATOM      7  O2' MOL d           8.515 -18.494 119.111  0.00  0.00    -0.319 OA
BRANCH   7   8
ATOM      8  C4' MOL d           8.553 -19.566 118.164  0.00  0.00     0.026 C 
ATOM      9  H4  MOL d           7.587 -19.637 117.641  0.00  0.00     0.074 H 
ATOM     10  H5  MOL d           9.354 -19.389 117.432  0.00  0.00     0.074 H 
BRANCH   8  11
ATOM     11  C5' MOL d           8.825 -20.865 118.931  0.00  0.00    -0.056 C 
ATOM     12  H1  MOL d           8.171 -20.913 119.814  0.00  0.00     0.030 H 
ATOM     13  H2  MOL d           9.877 -20.886 119.252  0.00  0.00     0.030 H 
ATOM     14  H3  MOL d           8.623 -21.726 118.277  0.00  0.00     0.030 H 
ENDBRANCH   8  11
ENDBRANCH   7   8
ENDBRANCH   5   7
ENDBRANCH   3   5
ENDBRANCH   1   3
BRANCH   1  15
ATOM     15  C1  MOL d           6.776 -16.605 115.129  0.00  0.00    -0.033 A 
ATOM     16  C2  MOL d           6.478 -17.860 114.609  0.00  0.00    -0.038 A 
ATOM     17  C3  MOL d           6.238 -18.009 113.245  0.00  0.00     0.099 A 
ATOM     18  H8  MOL d           6.433 -18.722 115.265  0.00  0.00     0.089 H 
ATOM     19  C4  MOL d           6.303 -16.904 112.403  0.00  0.00     0.098 A 
ATOM     20  C5  MOL d           6.608 -15.650 112.921  0.00  0.00    -0.047 A 
ATOM     21  C6  MOL d           6.845 -15.503 114.284  0.00  0.00    -0.070 A 
ATOM     22  H10 MOL d           6.661 -14.790 112.264  0.00  0.00     0.087 H 
ATOM     23  H9  MOL d           7.083 -14.526 114.689  0.00  0.00     0.084 H 
BRANCH  17  24
ATOM     24  O3  MOL d           5.920 -19.223 112.723  0.00  0.00    -0.358 OA
ATOM     25  H12 MOL d           6.552 -19.869 113.017  0.00  0.00     0.217 HD
ENDBRANCH  17  24
BRANCH  19  26
ATOM     26  O4  MOL d           6.071 -17.051 111.072  0.00  0.00    -0.358 OA
ATOM     27  H11 MOL d           5.598 -16.293 110.749  0.00  0.00     0.217 HD
ENDBRANCH  19  26
ENDBRANCH   1  15
TORSDOF 8
ENDMDL
MODEL 2
REMARK VINA RESULT:      -4.7      1.215      1.638
REMARK  8 active torsions:
REMARK  status: ('A' for Active; 'I' for Inactive)
REMARK    1  A    between atoms: C5'_1  and  C4'_2 
REMARK    2  A    between atoms: C4'_2  and  O2'_3 
REMARK    3  A    between atoms: O2'_3  and  C3'_4 
REMARK    4  A    between atoms: C3'_4  and  C2'_6 
REMARK    5  A    between atoms: C2'_6  and  C1'_7 
REMARK    6  A    between atoms: C1'_7  and  C1_8 
REMARK    7  A    between atoms: C4_12  and  O4_13 
REMARK    8  A    between atoms: C3_14  and  O3_15 
ROOT
ATOM      1  C1' MOL d           7.289 -16.623 116.670  0.00  0.00    -0.067 C 
ATOM      2  H7  MOL d           7.671 -15.713 117.128  0.00  0.00     0.085 H 
ENDROOT
BRANCH   1   3
ATOM      3  C2' MOL d           6.995 -17.910 117.439  0.00  0.00    -0.010 C 
ATOM      4  H6  MOL d           5.997 -18.290 117.654  0.00  0.00     0.092 H 
BRANCH   3   5
ATOM      5  C3' MOL d           8.297 -18.590 117.866  0.00  0.00     0.282 C 
ATOM      6  O1' MOL d           8.290 -19.716 118.363  0.00  0.00    -0.260 OA
BRANCH   5   7
ATOM      7  O2' MOL d           9.467 -17.926 117.668  0.00  0.00    -0.319 OA
BRANCH   7   8
ATOM      8  C4' MOL d          10.450 -18.769 117.056  0.00  0.00     0.026 C 
ATOM      9  H4  MOL d          11.448 -18.320 117.169  0.00  0.00     0.074 H 
ATOM     10  H5  MOL d          10.439 -19.761 117.530  0.00  0.00     0.074 H 
BRANCH   8  11
ATOM     11  C5' MOL d          10.102 -18.897 115.569  0.00  0.00    -0.056 C 
ATOM     12  H1  MOL d           9.690 -17.944 115.205  0.00  0.00     0.030 H 
ATOM     13  H2  MOL d           9.356 -19.695 115.435  0.00  0.00     0.030 H 
ATOM     14  H3  MOL d          11.010 -19.146 115.000  0.00  0.00     0.030 H 
ENDBRANCH   8  11
ENDBRANCH   7   8
ENDBRANCH   5   7
ENDBRANCH   3   5
ENDBRANCH   1   3
BRANCH   1  15
ATOM     15  C1  MOL d           6.984 -16.768 115.180  0.00  0.00    -0.033 A 
ATOM     16  C2  MOL d           6.641 -17.995 114.622  0.00  0.00    -0.038 A 
ATOM     17  C3  MOL d           6.289 -18.073 113.277  0.00  0.00     0.099 A 
ATOM     18  H8  MOL d           6.647 -18.890 115.235  0.00  0.00     0.089 H 
ATOM     19  C4  MOL d           6.287 -16.927 112.491  0.00  0.00     0.098 A 
ATOM     20  C5  MOL d           6.638 -15.701 113.046  0.00  0.00    -0.047 A 
ATOM     21  C6  MOL d           6.986 -15.623 114.391  0.00  0.00    -0.070 A 
ATOM     22  H10 MOL d           6.639 -14.807 112.432  0.00  0.00     0.087 H 
ATOM     23  H9  MOL d           7.260 -14.668 114.824  0.00  0.00     0.084 H 
BRANCH  17  24
ATOM     24  O3  MOL d           5.925 -19.259 112.721  0.00  0.00    -0.358 OA
ATOM     25  H12 MOL d           6.603 -19.906 112.883  0.00  0.00     0.217 HD
ENDBRANCH  17  24
BRANCH  19  26
ATOM     26  O4  MOL d           5.947 -17.005 111.178  0.00  0.00    -0.358 OA
ATOM     27  H11 MOL d           5.496 -16.209 110.921  0.00  0.00     0.217 HD
ENDBRANCH  19  26
ENDBRANCH   1  15
TORSDOF 8
ENDMDL
MODEL 3
REMARK VINA RESULT:      -4.5      1.484      2.188
REMARK  8 active torsions:
REMARK  status: ('A' for Active; 'I' for Inactive)
REMARK    1  A    between atoms: C5'_1  and  C4'_2 
REMARK    2  A    between atoms: C4'_2  and  O2'_3 
REMARK    3  A    between atoms: O2'_3  and  C3'_4 
REMARK    4  A    between atoms: C3'_4  and  C2'_6 
REMARK    5  A    between atoms: C2'_6  and  C1'_7 
REMARK    6  A    between atoms: C1'_7  and  C1_8 
REMARK    7  A    between atoms: C4_12  and  O4_13 
REMARK    8  A    between atoms: C3_14  and  O3_15 
ROOT
ATOM      1  C1' MOL d           7.148 -17.264 117.454  0.00  0.00    -0.067 C 
ATOM      2  H7  MOL d           7.033 -16.446 118.164  0.00  0.00     0.085 H 
ENDROOT
BRANCH   1   3
ATOM      3  C2' MOL d           7.827 -18.592 117.783  0.00  0.00    -0.010 C 
ATOM      4  H6  MOL d           7.382 -19.573 117.622  0.00  0.00     0.092 H 
BRANCH   3   5
ATOM      5  C3' MOL d           9.220 -18.353 118.369  0.00  0.00     0.282 C 
ATOM      6  O1' MOL d           9.928 -17.432 117.964  0.00  0.00    -0.260 OA
BRANCH   5   7
ATOM      7  O2' MOL d           9.651 -19.173 119.364  0.00  0.00    -0.319 OA
BRANCH   7   8
ATOM      8  C4' MOL d           9.009 -20.451 119.305  0.00  0.00     0.026 C 
ATOM      9  H4  MOL d           7.933 -20.338 119.504  0.00  0.00     0.074 H 
ATOM     10  H5  MOL d           9.152 -20.895 118.308  0.00  0.00     0.074 H 
BRANCH   8  11
ATOM     11  C5' MOL d           9.644 -21.349 120.371  0.00  0.00    -0.056 C 
ATOM     12  H1  MOL d           9.128 -22.321 120.387  0.00  0.00     0.030 H 
ATOM     13  H2  MOL d           9.553 -20.869 121.356  0.00  0.00     0.030 H 
ATOM     14  H3  MOL d          10.708 -21.503 120.135  0.00  0.00     0.030 H 
ENDBRANCH   8  11
ENDBRANCH   7   8
ENDBRANCH   5   7
ENDBRANCH   3   5
ENDBRANCH   1   3
BRANCH   1  15
ATOM     15  C1  MOL d           6.649 -17.220 116.011  0.00  0.00    -0.033 A 
ATOM     16  C2  MOL d           5.958 -16.121 115.513  0.00  0.00    -0.038 A 
ATOM     17  C3  MOL d           5.592 -16.080 114.170  0.00  0.00     0.099 A 
ATOM     18  H8  MOL d           5.705 -15.295 116.170  0.00  0.00     0.089 H 
ATOM     19  C4  MOL d           5.911 -17.141 113.330  0.00  0.00     0.098 A 
ATOM     20  C5  MOL d           6.595 -18.244 113.829  0.00  0.00    -0.047 A 
ATOM     21  C6  MOL d           6.963 -18.281 115.171  0.00  0.00    -0.070 A 
ATOM     22  H10 MOL d           6.841 -19.072 113.175  0.00  0.00     0.087 H 
ATOM     23  H9  MOL d           7.496 -19.141 115.561  0.00  0.00     0.084 H 
BRANCH  17  24
ATOM     24  O3  MOL d           4.939 -15.002 113.659  0.00  0.00    -0.358 OA
ATOM     25  H12 MOL d           4.593 -15.221 112.801  0.00  0.00     0.217 HD
ENDBRANCH  17  24
BRANCH  19  26
ATOM     26  O4  MOL d           5.550 -17.101 112.020  0.00  0.00    -0.358 OA
ATOM     27  H11 MOL d           5.673 -16.221 111.685  0.00  0.00     0.217 HD
ENDBRANCH  19  26
ENDBRANCH   1  15
TORSDOF 8
ENDMDL
MODEL 4
REMARK VINA RESULT:      -4.5      1.709      5.279
REMARK  8 active torsions:
REMARK  status: ('A' for Active; 'I' for Inactive)
REMARK    1  A    between atoms: C5'_1  and  C4'_2 
REMARK    2  A    between atoms: C4'_2  and  O2'_3 
REMARK    3  A    between atoms: O2'_3  and  C3'_4 
REMARK    4  A    between atoms: C3'_4  and  C2'_6 
REMARK    5  A    between atoms: C2'_6  and  C1'_7 
REMARK    6  A    between atoms: C1'_7  and  C1_8 
REMARK    7  A    between atoms: C4_12  and  O4_13 
REMARK    8  A    between atoms: C3_14  and  O3_15 
ROOT
ATOM      1  C1' MOL d           5.256 -16.233 115.175  0.00  0.00    -0.067 C 
ATOM      2  H7  MOL d           4.210 -16.205 115.476  0.00  0.00     0.085 H 
ENDROOT
BRANCH   1   3
ATOM      3  C2' MOL d           5.755 -15.853 113.782  0.00  0.00    -0.010 C 
ATOM      4  H6  MOL d           5.960 -14.835 113.452  0.00  0.00     0.092 H 
BRANCH   3   5
ATOM      5  C3' MOL d           5.926 -17.101 112.914  0.00  0.00     0.282 C 
ATOM      6  O1' MOL d           4.954 -17.659 112.407  0.00  0.00    -0.260 OA
BRANCH   5   7
ATOM      7  O2' MOL d           7.184 -17.572 112.702  0.00  0.00    -0.319 OA
BRANCH   7   8
ATOM      8  C4' MOL d           8.163 -16.536 112.844  0.00  0.00     0.026 C 
ATOM      9  H4  MOL d           8.553 -16.254 111.855  0.00  0.00     0.074 H 
ATOM     10  H5  MOL d           7.708 -15.657 113.324  0.00  0.00     0.074 H 
BRANCH   8  11
ATOM     11  C5' MOL d           9.300 -17.077 113.717  0.00  0.00    -0.056 C 
ATOM     12  H1  MOL d          10.158 -16.390 113.668  0.00  0.00     0.030 H 
ATOM     13  H2  MOL d           9.603 -18.069 113.351  0.00  0.00     0.030 H 
ATOM     14  H3  MOL d           8.955 -17.160 114.758  0.00  0.00     0.030 H 
ENDBRANCH   8  11
ENDBRANCH   7   8
ENDBRANCH   5   7
ENDBRANCH   3   5
ENDBRANCH   1   3
BRANCH   1  15
ATOM     15  C1  MOL d           6.399 -16.657 116.095  0.00  0.00    -0.033 A 
ATOM     16  C2  MOL d           6.619 -17.992 116.415  0.00  0.00    -0.038 A 
ATOM     17  C3  MOL d           7.720 -18.349 117.188  0.00  0.00     0.099 A 
ATOM     18  H8  MOL d           5.934 -18.755 116.061  0.00  0.00     0.089 H 
ATOM     19  C4  MOL d           8.595 -17.371 117.647  0.00  0.00     0.098 A 
ATOM     20  C5  MOL d           8.372 -16.034 117.333  0.00  0.00    -0.047 A 
ATOM     21  C6  MOL d           7.272 -15.679 116.557  0.00  0.00    -0.070 A 
ATOM     22  H10 MOL d           9.052 -15.271 117.693  0.00  0.00     0.087 H 
ATOM     23  H9  MOL d           7.097 -14.638 116.313  0.00  0.00     0.084 H 
BRANCH  17  24
ATOM     24  O3  MOL d           7.967 -19.652 117.490  0.00  0.00    -0.358 OA
ATOM     25  H12 MOL d           8.190 -19.727 118.411  0.00  0.00     0.217 HD
ENDBRANCH  17  24
BRANCH  19  26
ATOM     26  O4  MOL d           9.668 -17.720 118.404  0.00  0.00    -0.358 OA
ATOM     27  H11 MOL d          10.308 -17.018 118.388  0.00  0.00     0.217 HD
ENDBRANCH  19  26
ENDBRANCH   1  15
TORSDOF 8
ENDMDL
MODEL 5
REMARK VINA RESULT:      -4.1      1.906      5.921
REMARK  8 active torsions:
REMARK  status: ('A' for Active; 'I' for Inactive)
REMARK    1  A    between atoms: C5'_1  and  C4'_2 
REMARK    2  A    between atoms: C4'_2  and  O2'_3 
REMARK    3  A    between atoms: O2'_3  and  C3'_4 
REMARK    4  A    between atoms: C3'_4  and  C2'_6 
REMARK    5  A    between atoms: C2'_6  and  C1'_7 
REMARK    6  A    between atoms: C1'_7  and  C1_8 
REMARK    7  A    between atoms: C4_12  and  O4_13 
REMARK    8  A    between atoms: C3_14  and  O3_15 
ROOT
ATOM      1  C1' MOL d           6.264 -16.963 116.335  0.00  0.00    -0.067 C 
ATOM      2  H7  MOL d           5.244 -17.261 116.099  0.00  0.00     0.085 H 
ENDROOT
BRANCH   1   3
ATOM      3  C2' MOL d           6.992 -15.800 115.663  0.00  0.00    -0.010 C 
ATOM      4  H6  MOL d           7.930 -15.370 116.011  0.00  0.00     0.092 H 
BRANCH   3   5
ATOM      5  C3' MOL d           6.219 -15.322 114.432  0.00  0.00     0.282 C 
ATOM      6  O1' MOL d           5.032 -15.004 114.512  0.00  0.00    -0.260 OA
BRANCH   5   7
ATOM      7  O2' MOL d           6.879 -15.241 113.246  0.00  0.00    -0.319 OA
BRANCH   7   8
ATOM      8  C4' MOL d           7.492 -16.488 112.901  0.00  0.00     0.026 C 
ATOM      9  H4  MOL d           8.192 -16.341 112.065  0.00  0.00     0.074 H 
ATOM     10  H5  MOL d           8.035 -16.890 113.768  0.00  0.00     0.074 H 
BRANCH   8  11
ATOM     11  C5' MOL d           6.382 -17.459 112.485  0.00  0.00    -0.056 C 
ATOM     12  H1  MOL d           6.832 -18.391 112.110  0.00  0.00     0.030 H 
ATOM     13  H2  MOL d           5.772 -17.002 111.692  0.00  0.00     0.030 H 
ATOM     14  H3  MOL d           5.746 -17.683 113.354  0.00  0.00     0.030 H 
ENDBRANCH   8  11
ENDBRANCH   7   8
ENDBRANCH   5   7
ENDBRANCH   3   5
ENDBRANCH   1   3
BRANCH   1  15
ATOM     15  C1  MOL d           7.140 -17.658 117.376  0.00  0.00    -0.033 A 
ATOM     16  C2  MOL d           7.795 -18.852 117.096  0.00  0.00    -0.038 A 
ATOM     17  C3  MOL d           8.650 -19.414 118.040  0.00  0.00     0.099 A 
ATOM     18  H8  MOL d           7.640 -19.345 116.143  0.00  0.00     0.089 H 
ATOM     19  C4  MOL d           8.844 -18.784 119.265  0.00  0.00     0.098 A 
ATOM     20  C5  MOL d           8.183 -17.594 119.549  0.00  0.00    -0.047 A 
ATOM     21  C6  MOL d           7.331 -17.032 118.603  0.00  0.00    -0.070 A 
ATOM     22  H10 MOL d           8.332 -17.105 120.504  0.00  0.00     0.087 H 
ATOM     23  H9  MOL d           6.815 -16.105 118.823  0.00  0.00     0.084 H 
BRANCH  17  24
ATOM     24  O3  MOL d           9.320 -20.567 117.775  0.00  0.00    -0.358 OA
ATOM     25  H12 MOL d          10.223 -20.365 117.558  0.00  0.00     0.217 HD
ENDBRANCH  17  24
BRANCH  19  26
ATOM     26  O4  MOL d           9.676 -19.335 120.187  0.00  0.00    -0.358 OA
ATOM     27  H11 MOL d          10.320 -19.877 119.746  0.00  0.00     0.217 HD
ENDBRANCH  19  26
ENDBRANCH   1  15
TORSDOF 8
ENDMDL
MODEL 6
REMARK VINA RESULT:      -4.1      2.424      5.392
REMARK  8 active torsions:
REMARK  status: ('A' for Active; 'I' for Inactive)
REMARK    1  A    between atoms: C5'_1  and  C4'_2 
REMARK    2  A    between atoms: C4'_2  and  O2'_3 
REMARK    3  A    between atoms: O2'_3  and  C3'_4 
REMARK    4  A    between atoms: C3'_4  and  C2'_6 
REMARK    5  A    between atoms: C2'_6  and  C1'_7 
REMARK    6  A    between atoms: C1'_7  and  C1_8 
REMARK    7  A    between atoms: C4_12  and  O4_13 
REMARK    8  A    between atoms: C3_14  and  O3_15 
ROOT
ATOM      1  C1' MOL d           7.920 -16.050 116.378  0.00  0.00    -0.067 C 
ATOM      2  H7  MOL d           8.431 -15.102 116.539  0.00  0.00     0.085 H 
ENDROOT
BRANCH   1   3
ATOM      3  C2' MOL d           6.436 -16.174 116.040  0.00  0.00    -0.010 C 
ATOM      4  H6  MOL d           5.703 -16.702 116.649  0.00  0.00     0.092 H 
BRANCH   3   5
ATOM      5  C3' MOL d           6.121 -15.454 114.728  0.00  0.00     0.282 C 
ATOM      6  O1' MOL d           4.998 -15.002 114.506  0.00  0.00    -0.260 OA
BRANCH   5   7
ATOM      7  O2' MOL d           7.119 -15.309 113.816  0.00  0.00    -0.319 OA
BRANCH   7   8
ATOM      8  C4' MOL d           6.847 -16.045 112.619  0.00  0.00     0.026 C 
ATOM      9  H4  MOL d           5.974 -16.696 112.772  0.00  0.00     0.074 H 
ATOM     10  H5  MOL d           6.645 -15.350 111.790  0.00  0.00     0.074 H 
BRANCH   8  11
ATOM     11  C5' MOL d           8.080 -16.896 112.296  0.00  0.00    -0.056 C 
ATOM     12  H1  MOL d           7.939 -17.393 111.325  0.00  0.00     0.030 H 
ATOM     13  H2  MOL d           8.216 -17.656 113.080  0.00  0.00     0.030 H 
ATOM     14  H3  MOL d           8.969 -16.250 112.252  0.00  0.00     0.030 H 
ENDBRANCH   8  11
ENDBRANCH   7   8
ENDBRANCH   5   7
ENDBRANCH   3   5
ENDBRANCH   1   3
BRANCH   1  15
ATOM     15  C1  MOL d           8.602 -17.414 116.462  0.00  0.00    -0.033 A 
ATOM     16  C2  MOL d           8.193 -18.376 117.379  0.00  0.00    -0.038 A 
ATOM     17  C3  MOL d           8.783 -19.638 117.372  0.00  0.00     0.099 A 
ATOM     18  H8  MOL d           7.416 -18.145 118.099  0.00  0.00     0.089 H 
ATOM     19  C4  MOL d           9.784 -19.933 116.453  0.00  0.00     0.098 A 
ATOM     20  C5  MOL d          10.199 -18.968 115.541  0.00  0.00    -0.047 A 
ATOM     21  C6  MOL d           9.607 -17.709 115.548  0.00  0.00    -0.070 A 
ATOM     22  H10 MOL d          10.981 -19.197 114.827  0.00  0.00     0.087 H 
ATOM     23  H9  MOL d           9.929 -16.956 114.838  0.00  0.00     0.084 H 
BRANCH  17  24
ATOM     24  O3  MOL d           8.378 -20.601 118.243  0.00  0.00    -0.358 OA
ATOM     25  H12 MOL d           8.554 -20.316 119.132  0.00  0.00     0.217 HD
ENDBRANCH  17  24
BRANCH  19  26
ATOM     26  O4  MOL d          10.360 -21.163 116.449  0.00  0.00    -0.358 OA
ATOM     27  H11 MOL d          10.928 -21.248 117.206  0.00  0.00     0.217 HD
ENDBRANCH  19  26
ENDBRANCH   1  15
TORSDOF 8
ENDMDL
MODEL 7
REMARK VINA RESULT:      -4.0      1.729      6.325
REMARK  8 active torsions:
REMARK  status: ('A' for Active; 'I' for Inactive)
REMARK    1  A    between atoms: C5'_1  and  C4'_2 
REMARK    2  A    between atoms: C4'_2  and  O2'_3 
REMARK    3  A    between atoms: O2'_3  and  C3'_4 
REMARK    4  A    between atoms: C3'_4  and  C2'_6 
REMARK    5  A    between atoms: C2'_6  and  C1'_7 
REMARK    6  A    between atoms: C1'_7  and  C1_8 
REMARK    7  A    between atoms: C4_12  and  O4_13 
REMARK    8  A    between atoms: C3_14  and  O3_15 
ROOT
ATOM      1  C1' MOL d           6.868 -17.813 115.954  0.00  0.00    -0.067 C 
ATOM      2  H7  MOL d           7.165 -18.380 115.073  0.00  0.00     0.085 H 
ENDROOT
BRANCH   1   3
ATOM      3  C2' MOL d           5.773 -16.748 115.956  0.00  0.00    -0.010 C 
ATOM      4  H6  MOL d           4.999 -16.655 116.717  0.00  0.00     0.092 H 
BRANCH   3   5
ATOM      5  C3' MOL d           5.915 -15.829 114.741  0.00  0.00     0.282 C 
ATOM      6  O1' MOL d           5.041 -15.009 114.461  0.00  0.00    -0.260 OA
BRANCH   5   7
ATOM      7  O2' MOL d           7.040 -15.929 113.985  0.00  0.00    -0.319 OA
BRANCH   7   8
ATOM      8  C4' MOL d           6.728 -16.013 112.590  0.00  0.00     0.026 C 
ATOM      9  H4  MOL d           5.689 -15.696 112.420  0.00  0.00     0.074 H 
ATOM     10  H5  MOL d           7.407 -15.365 112.016  0.00  0.00     0.074 H 
BRANCH   8  11
ATOM     11  C5' MOL d           6.906 -17.471 112.153  0.00  0.00    -0.056 C 
ATOM     12  H1  MOL d           5.937 -17.990 112.207  0.00  0.00     0.030 H 
ATOM     13  H2  MOL d           7.626 -17.968 112.820  0.00  0.00     0.030 H 
ATOM     14  H3  MOL d           7.281 -17.501 111.119  0.00  0.00     0.030 H 
ENDBRANCH   8  11
ENDBRANCH   7   8
ENDBRANCH   5   7
ENDBRANCH   3   5
ENDBRANCH   1   3
BRANCH   1  15
ATOM     15  C1  MOL d           7.498 -17.987 117.335  0.00  0.00    -0.033 A 
ATOM     16  C2  MOL d           7.292 -17.060 118.351  0.00  0.00    -0.038 A 
ATOM     17  C3  MOL d           7.813 -17.293 119.620  0.00  0.00     0.099 A 
ATOM     18  H8  MOL d           6.725 -16.156 118.154  0.00  0.00     0.089 H 
ATOM     19  C4  MOL d           8.545 -18.448 119.871  0.00  0.00     0.098 A 
ATOM     20  C5  MOL d           8.758 -19.372 118.853  0.00  0.00    -0.047 A 
ATOM     21  C6  MOL d           8.233 -19.139 117.585  0.00  0.00    -0.070 A 
ATOM     22  H10 MOL d           9.330 -20.272 119.048  0.00  0.00     0.087 H 
ATOM     23  H9  MOL d           8.399 -19.859 116.791  0.00  0.00     0.084 H 
BRANCH  17  24
ATOM     24  O3  MOL d           7.600 -16.411 120.634  0.00  0.00    -0.358 OA
ATOM     25  H12 MOL d           7.488 -16.887 121.449  0.00  0.00     0.217 HD
ENDBRANCH  17  24
BRANCH  19  26
ATOM     26  O4  MOL d           9.056 -18.673 121.110  0.00  0.00    -0.358 OA
ATOM     27  H11 MOL d           8.849 -17.938 121.674  0.00  0.00     0.217 HD
ENDBRANCH  19  26
ENDBRANCH   1  15
TORSDOF 8
ENDMDL
MODEL 8
REMARK VINA RESULT:      -4.0      1.620      5.690
REMARK  8 active torsions:
REMARK  status: ('A' for Active; 'I' for Inactive)
REMARK    1  A    between atoms: C5'_1  and  C4'_2 
REMARK    2  A    between atoms: C4'_2  and  O2'_3 
REMARK    3  A    between atoms: O2'_3  and  C3'_4 
REMARK    4  A    between atoms: C3'_4  and  C2'_6 
REMARK    5  A    between atoms: C2'_6  and  C1'_7 
REMARK    6  A    between atoms: C1'_7  and  C1_8 
REMARK    7  A    between atoms: C4_12  and  O4_13 
REMARK    8  A    between atoms: C3_14  and  O3_15 
ROOT
ATOM      1  C1' MOL d           5.327 -16.097 114.964  0.00  0.00    -0.067 C 
ATOM      2  H7  MOL d           4.271 -16.348 115.042  0.00  0.00     0.085 H 
ENDROOT
BRANCH   1   3
ATOM      3  C2' MOL d           5.918 -15.213 113.867  0.00  0.00    -0.010 C 
ATOM      4  H6  MOL d           5.864 -14.126 113.849  0.00  0.00     0.092 H 
BRANCH   3   5
ATOM      5  C3' MOL d           6.597 -16.069 112.796  0.00  0.00     0.282 C 
ATOM      6  O1' MOL d           6.057 -17.086 112.360  0.00  0.00    -0.260 OA
BRANCH   5   7
ATOM      7  O2' MOL d           7.808 -15.670 112.323  0.00  0.00    -0.319 OA
BRANCH   7   8
ATOM      8  C4' MOL d           8.763 -16.736 112.360  0.00  0.00     0.026 C 
ATOM      9  H4  MOL d           8.266 -17.690 112.130  0.00  0.00     0.074 H 
ATOM     10  H5  MOL d           9.559 -16.550 111.625  0.00  0.00     0.074 H 
BRANCH   8  11
ATOM     11  C5' MOL d           9.358 -16.788 113.771  0.00  0.00    -0.056 C 
ATOM     12  H1  MOL d           9.158 -17.773 114.218  0.00  0.00     0.030 H 
ATOM     13  H2  MOL d           8.899 -16.003 114.391  0.00  0.00     0.030 H 
ATOM     14  H3  MOL d          10.444 -16.623 113.717  0.00  0.00     0.030 H 
ENDBRANCH   8  11
ENDBRANCH   7   8
ENDBRANCH   5   7
ENDBRANCH   3   5
ENDBRANCH   1   3
BRANCH   1  15
ATOM     15  C1  MOL d           6.396 -16.587 115.939  0.00  0.00    -0.033 A 
ATOM     16  C2  MOL d           7.118 -15.703 116.734  0.00  0.00    -0.038 A 
ATOM     17  C3  MOL d           8.025 -16.191 117.670  0.00  0.00     0.099 A 
ATOM     18  H8  MOL d           6.973 -14.634 116.625  0.00  0.00     0.089 H 
ATOM     19  C4  MOL d           8.215 -17.562 117.805  0.00  0.00     0.098 A 
ATOM     20  C5  MOL d           7.500 -18.447 117.006  0.00  0.00    -0.047 A 
ATOM     21  C6  MOL d           6.591 -17.957 116.072  0.00  0.00    -0.070 A 
ATOM     22  H10 MOL d           7.650 -19.515 117.109  0.00  0.00     0.087 H 
ATOM     23  H9  MOL d           6.033 -18.646 115.448  0.00  0.00     0.084 H 
BRANCH  17  24
ATOM     24  O3  MOL d           8.720 -15.344 118.474  0.00  0.00    -0.358 OA
ATOM     25  H12 MOL d           8.868 -14.524 118.017  0.00  0.00     0.217 HD
ENDBRANCH  17  24
BRANCH  19  26
ATOM     26  O4  MOL d           9.104 -18.037 118.717  0.00  0.00    -0.358 OA
ATOM     27  H11 MOL d           8.633 -18.467 119.422  0.00  0.00     0.217 HD
ENDBRANCH  19  26
ENDBRANCH   1  15
TORSDOF 8
ENDMDL
MODEL 9
REMARK VINA RESULT:      -3.2      1.745      2.517
REMARK  8 active torsions:
REMARK  status: ('A' for Active; 'I' for Inactive)
REMARK    1  A    between atoms: C5'_1  and  C4'_2 
REMARK    2  A    between atoms: C4'_2  and  O2'_3 
REMARK    3  A    between atoms: O2'_3  and  C3'_4 
REMARK    4  A    between atoms: C3'_4  and  C2'_6 
REMARK    5  A    between atoms: C2'_6  and  C1'_7 
REMARK    6  A    between atoms: C1'_7  and  C1_8 
REMARK    7  A    between atoms: C4_12  and  O4_13 
REMARK    8  A    between atoms: C3_14  and  O3_15 
ROOT
ATOM      1  C1' MOL d           8.845 -15.801 117.176  0.00  0.00    -0.067 C 
ATOM      2  H7  MOL d           8.979 -14.830 117.650  0.00  0.00     0.085 H 
ENDROOT
BRANCH   1   3
ATOM      3  C2' MOL d           9.581 -17.070 117.603  0.00  0.00    -0.010 C 
ATOM      4  H6  MOL d          10.598 -17.326 117.309  0.00  0.00     0.092 H 
BRANCH   3   5
ATOM      5  C3' MOL d           8.692 -17.931 118.501  0.00  0.00     0.282 C 
ATOM      6  O1' MOL d           8.084 -18.902 118.049  0.00  0.00    -0.260 OA
BRANCH   5   7
ATOM      7  O2' MOL d           8.600 -17.608 119.819  0.00  0.00    -0.319 OA
BRANCH   7   8
ATOM      8  C4' MOL d           7.272 -17.202 120.168  0.00  0.00     0.026 C 
ATOM      9  H4  MOL d           6.894 -16.483 119.426  0.00  0.00     0.074 H 
ATOM     10  H5  MOL d           6.609 -18.080 120.198  0.00  0.00     0.074 H 
BRANCH   8  11
ATOM     11  C5' MOL d           7.327 -16.543 121.550  0.00  0.00    -0.056 C 
ATOM     12  H1  MOL d           6.460 -16.866 122.145  0.00  0.00     0.030 H 
ATOM     13  H2  MOL d           7.306 -15.449 121.435  0.00  0.00     0.030 H 
ATOM     14  H3  MOL d           8.255 -16.840 122.061  0.00  0.00     0.030 H 
ENDBRANCH   8  11
ENDBRANCH   7   8
ENDBRANCH   5   7
ENDBRANCH   3   5
ENDBRANCH   1   3
BRANCH   1  15
ATOM     15  C1  MOL d           7.898 -16.058 116.006  0.00  0.00    -0.033 A 
ATOM     16  C2  MOL d           8.341 -16.646 114.826  0.00  0.00    -0.038 A 
ATOM     17  C3  MOL d           7.434 -16.941 113.812  0.00  0.00     0.099 A 
ATOM     18  H8  MOL d           9.393 -16.876 114.696  0.00  0.00     0.089 H 
ATOM     19  C4  MOL d           6.086 -16.641 113.976  0.00  0.00     0.098 A 
ATOM     20  C5  MOL d           5.643 -16.046 115.153  0.00  0.00    -0.047 A 
ATOM     21  C6  MOL d           6.551 -15.755 116.166  0.00  0.00    -0.070 A 
ATOM     22  H10 MOL d           4.593 -15.810 115.280  0.00  0.00     0.087 H 
ATOM     23  H9  MOL d           6.207 -15.291 117.083  0.00  0.00     0.084 H 
BRANCH  17  24
ATOM     24  O3  MOL d           7.844 -17.540 112.662  0.00  0.00    -0.358 OA
ATOM     25  H12 MOL d           8.641 -17.123 112.356  0.00  0.00     0.217 HD
ENDBRANCH  17  24
BRANCH  19  26
ATOM     26  O4  MOL d           5.201 -16.927 112.985  0.00  0.00    -0.358 OA
ATOM     27  H11 MOL d           4.491 -17.450 113.337  0.00  0.00     0.217 HD
ENDBRANCH  19  26
ENDBRANCH   1  15
TORSDOF 8
ENDMDL
MODEL 10
REMARK VINA RESULT:      -2.9      2.230      6.682
REMARK  8 active torsions:
REMARK  status: ('A' for Active; 'I' for Inactive)
REMARK    1  A    between atoms: C5'_1  and  C4'_2 
REMARK    2  A    between atoms: C4'_2  and  O2'_3 
REMARK    3  A    between atoms: O2'_3  and  C3'_4 
REMARK    4  A    between atoms: C3'_4  and  C2'_6 
REMARK    5  A    between atoms: C2'_6  and  C1'_7 
REMARK    6  A    between atoms: C1'_7  and  C1_8 
REMARK    7  A    between atoms: C4_12  and  O4_13 
REMARK    8  A    between atoms: C3_14  and  O3_15 
ROOT
ATOM      1  C1' MOL d           8.677 -18.959 116.782  0.00  0.00    -0.067 C 
ATOM      2  H7  MOL d           9.469 -19.595 116.390  0.00  0.00     0.085 H 
ENDROOT
BRANCH   1   3
ATOM      3  C2' MOL d           7.644 -18.245 115.911  0.00  0.00    -0.010 C 
ATOM      4  H6  MOL d           6.566 -18.289 116.064  0.00  0.00     0.092 H 
BRANCH   3   5
ATOM      5  C3' MOL d           8.334 -17.460 114.794  0.00  0.00     0.282 C 
ATOM      6  O1' MOL d           9.499 -17.701 114.477  0.00  0.00    -0.260 OA
BRANCH   5   7
ATOM      7  O2' MOL d           7.624 -16.498 114.147  0.00  0.00    -0.319 OA
BRANCH   7   8
ATOM      8  C4' MOL d           6.228 -16.581 114.456  0.00  0.00     0.026 C 
ATOM      9  H4  MOL d           5.771 -17.411 113.898  0.00  0.00     0.074 H 
ATOM     10  H5  MOL d           6.094 -16.745 115.535  0.00  0.00     0.074 H 
BRANCH   8  11
ATOM     11  C5' MOL d           5.575 -15.257 114.045  0.00  0.00    -0.056 C 
ATOM     12  H1  MOL d           5.466 -14.612 114.930  0.00  0.00     0.030 H 
ATOM     13  H2  MOL d           4.584 -15.456 113.612  0.00  0.00     0.030 H 
ATOM     14  H3  MOL d           6.207 -14.752 113.299  0.00  0.00     0.030 H 
ENDBRANCH   8  11
ENDBRANCH   7   8
ENDBRANCH   5   7
ENDBRANCH   3   5
ENDBRANCH   1   3
BRANCH   1  15
ATOM     15  C1  MOL d           8.465 -18.674 118.268  0.00  0.00    -0.033 A 
ATOM     16  C2  MOL d           9.101 -19.423 119.251  0.00  0.00    -0.038 A 
ATOM     17  C3  MOL d           8.950 -19.082 120.592  0.00  0.00     0.099 A 
ATOM     18  H8  MOL d           9.716 -20.273 118.973  0.00  0.00     0.089 H 
ATOM     19  C4  MOL d           8.157 -17.997 120.949  0.00  0.00     0.098 A 
ATOM     20  C5  MOL d           7.514 -17.252 119.967  0.00  0.00    -0.047 A 
ATOM     21  C6  MOL d           7.669 -17.592 118.626  0.00  0.00    -0.070 A 
ATOM     22  H10 MOL d           6.894 -16.408 120.245  0.00  0.00     0.087 H 
ATOM     23  H9  MOL d           7.168 -17.012 117.859  0.00  0.00     0.084 H 
BRANCH  17  24
ATOM     24  O3  MOL d           9.586 -19.787 121.566  0.00  0.00    -0.358 OA
ATOM     25  H12 MOL d           9.530 -19.312 122.388  0.00  0.00     0.217 HD
ENDBRANCH  17  24
BRANCH  19  26
ATOM     26  O4  MOL d           8.008 -17.667 122.258  0.00  0.00    -0.358 OA
ATOM     27  H11 MOL d           8.173 -18.432 122.797  0.00  0.00     0.217 HD
ENDBRANCH  19  26
ENDBRANCH   1  15
TORSDOF 8
ENDMDL
