MODEL 1
REMARK VINA RESULT:      -8.4      0.000      0.000
REMARK  20 active torsions:
REMARK  status: ('A' for Active; 'I' for Inactive)
REMARK    1  A    between atoms: C3_3  and  C7_7 
REMARK    2  A    between atoms: C4_4  and  C27_27 
REMARK    3  A    between atoms: C7_7  and  C8_8 
REMARK    4  A    between atoms: C8_8  and  C9_9 
REMARK    5  A    between atoms: C9_9  and  C10_10 
REMARK    6  A    between atoms: C10_10  and  C11_11 
REMARK    7  A    between atoms: C11_11  and  C12_12 
REMARK    8  A    between atoms: C12_12  and  C13_13 
REMARK    9  A    between atoms: C13_13  and  C14_14 
REMARK   10  A    between atoms: C14_14  and  C15_15 
REMARK   11  A    between atoms: C15_15  and  C16_16 
REMARK       I    between atoms: C16_16  and  N17_17 
REMARK   12  A    between atoms: N17_17  and  C18_18 
REMARK   13  A    between atoms: C18_18  and  C20_20 
REMARK   14  A    between atoms: C18_18  and  C21_21 
REMARK   15  A    between atoms: C20_20  and  C23_23 
REMARK       I    between atoms: C21_21  and  N22_22 
REMARK   16  A    between atoms: N22_22  and  O32_32 
REMARK   17  A    between atoms: C23_23  and  C24_24 
REMARK   18  A    between atoms: C24_24  and  C25_25 
REMARK   19  A    between atoms: C25_25  and  N26_26 
REMARK   20  A    between atoms: C27_27  and  N28_28 
REMARK       I    between atoms: N28_28  and  C29_29 
REMARK       I    between atoms: C29_29  and  N30_30 
ROOT
ATOM      1  C12 FA4 d          28.290   5.070  15.515  0.00  0.00    -0.065 C 
ATOM      2  H15 FA4 d          27.666   5.409  16.355  0.00  0.00     0.033 H 
ATOM      3  H16 FA4 d          28.078   5.685  14.629  0.00  0.00     0.033 H 
ENDROOT
BRANCH   1   4
ATOM      4  C11 FA4 d          27.927   3.616  15.195  0.00  0.00    -0.065 C 
ATOM      5  H13 FA4 d          28.840   3.003  15.251  0.00  0.00     0.033 H 
ATOM      6  H14 FA4 d          27.201   3.261  15.941  0.00  0.00     0.033 H 
BRANCH   4   7
ATOM      7  C10 FA4 d          27.316   3.464  13.800  0.00  0.00    -0.065 C 
ATOM      8  H11 FA4 d          26.822   4.409  13.531  0.00  0.00     0.033 H 
ATOM      9  H12 FA4 d          28.125   3.256  13.085  0.00  0.00     0.033 H 
BRANCH   7  10
ATOM     10  C9  FA4 d          26.286   2.334  13.712  0.00  0.00    -0.065 C 
ATOM     11  H9  FA4 d          25.622   2.529  12.856  0.00  0.00     0.033 H 
ATOM     12  H10 FA4 d          26.819   1.384  13.553  0.00  0.00     0.033 H 
BRANCH  10  13
ATOM     13  C8  FA4 d          25.433   2.211  14.975  0.00  0.00    -0.061 C 
ATOM     14  H7  FA4 d          25.061   1.178  15.050  0.00  0.00     0.033 H 
ATOM     15  H8  FA4 d          26.062   2.439  15.849  0.00  0.00     0.033 H 
BRANCH  13  16
ATOM     16  C7  FA4 d          24.230   3.169  14.968  0.00  0.00    -0.040 C 
ATOM     17  H5  FA4 d          23.723   3.107  15.943  0.00  0.00     0.040 H 
ATOM     18  H6  FA4 d          24.596   4.195  14.810  0.00  0.00     0.040 H 
BRANCH  16  19
ATOM     19  C3  FA4 d          23.238   2.835  13.883  0.00  0.00    -0.050 A 
ATOM     20  C2  FA4 d          22.516   1.598  13.947  0.00  0.00    -0.076 A 
ATOM     21  C1  FA4 d          21.570   1.253  12.935  0.00  0.00    -0.082 A 
ATOM     22  H2  FA4 d          22.689   0.917  14.773  0.00  0.00     0.084 H 
ATOM     23  C6  FA4 d          21.328   2.133  11.832  0.00  0.00    -0.082 A 
ATOM     24  H1  FA4 d          21.030   0.315  13.001  0.00  0.00     0.083 H 
ATOM     25  C5  FA4 d          22.038   3.381  11.745  0.00  0.00    -0.075 A 
ATOM     26  H4  FA4 d          20.612   1.860  11.065  0.00  0.00     0.083 H 
ATOM     27  C4  FA4 d          22.994   3.744  12.758  0.00  0.00    -0.034 A 
ATOM     28  H3  FA4 d          21.853   4.050  10.912  0.00  0.00     0.084 H 
BRANCH  27  29
ATOM     29  C27 FA4 d          23.692   5.083  12.586  0.00  0.00     0.033 C 
ATOM     30  H37 FA4 d          23.384   5.528  11.629  0.00  0.00     0.072 H 
ATOM     31  H38 FA4 d          24.780   4.922  12.582  0.00  0.00     0.072 H 
BRANCH  29  32
ATOM     32  N28 FA4 d          23.347   6.004  13.677  0.00  0.00    -0.223 N 
ATOM     33  C29 FA4 d          22.158   6.701  13.659  0.00  0.00     0.665 C 
ATOM     34  N30 FA4 d          21.590   7.056  14.806  0.00  0.00    -0.235 N 
ATOM     35  N31 FA4 d          21.559   7.025  12.503  0.00  0.00    -0.235 N 
ATOM     36  H40 FA4 d          20.701   7.578  14.801  0.00  0.00     0.174 HD
ATOM     37  H41 FA4 d          22.038   6.811  15.699  0.00  0.00     0.174 HD
ATOM     38  H42 FA4 d          21.990   6.754  11.607  0.00  0.00     0.174 HD
ATOM     39  H43 FA4 d          20.669   7.543  12.511  0.00  0.00     0.174 HD
ATOM     40  H39 FA4 d          24.000   6.130  14.463  0.00  0.00     0.178 HD
ENDBRANCH  29  32
ENDBRANCH  27  29
ENDBRANCH  16  19
ENDBRANCH  13  16
ENDBRANCH  10  13
ENDBRANCH   7  10
ENDBRANCH   4   7
ENDBRANCH   1   4
BRANCH   1  41
ATOM     41  C13 FA4 d          29.755   5.253  15.894  0.00  0.00    -0.065 C 
ATOM     42  H17 FA4 d          29.923   4.797  16.880  0.00  0.00     0.033 H 
ATOM     43  H18 FA4 d          29.973   6.330  15.946  0.00  0.00     0.033 H 
BRANCH  41  44
ATOM     44  C14 FA4 d          30.712   4.607  14.886  0.00  0.00    -0.057 C 
ATOM     45  H19 FA4 d          30.652   5.169  13.942  0.00  0.00     0.033 H 
ATOM     46  H20 FA4 d          30.390   3.569  14.717  0.00  0.00     0.033 H 
BRANCH  44  47
ATOM     47  C15 FA4 d          32.171   4.591  15.345  0.00  0.00     0.009 C 
ATOM     48  H21 FA4 d          32.776   4.048  14.604  0.00  0.00     0.047 H 
ATOM     49  H22 FA4 d          32.237   4.080  16.318  0.00  0.00     0.047 H 
BRANCH  47  50
ATOM     50  C16 FA4 d          32.715   6.019  15.490  0.00  0.00     0.218 C 
ATOM     51  N17 FA4 d          32.800   6.634  14.289  0.00  0.00    -0.348 N 
ATOM     52  H23 FA4 d          32.528   6.135  13.467  0.00  0.00     0.163 HD
ATOM     53  O19 FA4 d          33.016   6.492  16.589  0.00  0.00    -0.274 OA
BRANCH  51  54
ATOM     54  C18 FA4 d          33.275   7.998  14.163  0.00  0.00     0.091 C 
ATOM     55  H24 FA4 d          33.877   8.263  15.043  0.00  0.00     0.087 H 
BRANCH  54  56
ATOM     56  C20 FA4 d          32.048   8.911  14.094  0.00  0.00    -0.038 C 
ATOM     57  H25 FA4 d          31.159   8.318  14.356  0.00  0.00     0.036 H 
ATOM     58  H26 FA4 d          31.950   9.285  13.064  0.00  0.00     0.036 H 
BRANCH  56  59
ATOM     59  C23 FA4 d          32.120  10.109  15.036  0.00  0.00    -0.061 C 
ATOM     60  H28 FA4 d          31.961  11.029  14.454  0.00  0.00     0.033 H 
ATOM     61  H29 FA4 d          33.117  10.137  15.500  0.00  0.00     0.033 H 
BRANCH  59  62
ATOM     62  C24 FA4 d          31.063  10.031  16.137  0.00  0.00    -0.043 C 
ATOM     63  H30 FA4 d          30.493   9.098  16.014  0.00  0.00     0.035 H 
ATOM     64  H31 FA4 d          30.385  10.891  16.037  0.00  0.00     0.035 H 
BRANCH  62  65
ATOM     65  C25 FA4 d          31.678  10.050  17.538  0.00  0.00     0.080 C 
ATOM     66  H32 FA4 d          30.965  10.524  18.229  0.00  0.00     0.075 H 
ATOM     67  H33 FA4 d          32.607  10.639  17.508  0.00  0.00     0.075 H 
BRANCH  65  68
ATOM     68  N26 FA4 d          31.987   8.713  18.031  0.00  0.00    -0.079 N 
ATOM     69  H34 FA4 d          31.250   8.079  17.767  0.00  0.00     0.274 HD
ATOM     70  H35 FA4 d          32.067   8.736  19.036  0.00  0.00     0.274 HD
ATOM     71  H36 FA4 d          32.858   8.401  17.631  0.00  0.00     0.274 HD
ENDBRANCH  65  68
ENDBRANCH  62  65
ENDBRANCH  59  62
ENDBRANCH  56  59
ENDBRANCH  54  56
BRANCH  54  72
ATOM     72  C21 FA4 d          34.147   8.138  12.902  0.00  0.00     0.263 C 
ATOM     73  N22 FA4 d          34.473   6.968  12.335  0.00  0.00    -0.236 N 
ATOM     74  H27 FA4 d          34.155   6.108  12.734  0.00  0.00     0.197 HD
ATOM     75  O33 FA4 d          34.487   9.238  12.478  0.00  0.00    -0.269 OA
BRANCH  73  76
ATOM     76  O32 FA4 d          35.261   6.959  11.181  0.00  0.00    -0.287 OA
ATOM     77  H44 FA4 d          35.848   6.213  11.205  0.00  0.00     0.244 HD
ENDBRANCH  73  76
ENDBRANCH  54  72
ENDBRANCH  51  54
ENDBRANCH  47  50
ENDBRANCH  44  47
ENDBRANCH  41  44
ENDBRANCH   1  41
TORSDOF 20
ENDMDL
MODEL 2
REMARK VINA RESULT:      -7.8      1.729      3.108
REMARK  20 active torsions:
REMARK  status: ('A' for Active; 'I' for Inactive)
REMARK    1  A    between atoms: C3_3  and  C7_7 
REMARK    2  A    between atoms: C4_4  and  C27_27 
REMARK    3  A    between atoms: C7_7  and  C8_8 
REMARK    4  A    between atoms: C8_8  and  C9_9 
REMARK    5  A    between atoms: C9_9  and  C10_10 
REMARK    6  A    between atoms: C10_10  and  C11_11 
REMARK    7  A    between atoms: C11_11  and  C12_12 
REMARK    8  A    between atoms: C12_12  and  C13_13 
REMARK    9  A    between atoms: C13_13  and  C14_14 
REMARK   10  A    between atoms: C14_14  and  C15_15 
REMARK   11  A    between atoms: C15_15  and  C16_16 
REMARK       I    between atoms: C16_16  and  N17_17 
REMARK   12  A    between atoms: N17_17  and  C18_18 
REMARK   13  A    between atoms: C18_18  and  C20_20 
REMARK   14  A    between atoms: C18_18  and  C21_21 
REMARK   15  A    between atoms: C20_20  and  C23_23 
REMARK       I    between atoms: C21_21  and  N22_22 
REMARK   16  A    between atoms: N22_22  and  O32_32 
REMARK   17  A    between atoms: C23_23  and  C24_24 
REMARK   18  A    between atoms: C24_24  and  C25_25 
REMARK   19  A    between atoms: C25_25  and  N26_26 
REMARK   20  A    between atoms: C27_27  and  N28_28 
REMARK       I    between atoms: N28_28  and  C29_29 
REMARK       I    between atoms: C29_29  and  N30_30 
ROOT
ATOM      1  C12 FA4 d          28.944   5.334  14.458  0.00  0.00    -0.065 C 
ATOM      2  H15 FA4 d          29.155   6.408  14.571  0.00  0.00     0.033 H 
ATOM      3  H16 FA4 d          29.157   5.025  13.425  0.00  0.00     0.033 H 
ENDROOT
BRANCH   1   4
ATOM      4  C11 FA4 d          27.458   5.097  14.741  0.00  0.00    -0.065 C 
ATOM      5  H13 FA4 d          27.364   4.453  15.628  0.00  0.00     0.033 H 
ATOM      6  H14 FA4 d          26.977   6.067  14.940  0.00  0.00     0.033 H 
BRANCH   4   7
ATOM      7  C10 FA4 d          26.743   4.425  13.565  0.00  0.00    -0.065 C 
ATOM      8  H11 FA4 d          25.700   4.774  13.545  0.00  0.00     0.033 H 
ATOM      9  H12 FA4 d          27.248   4.722  12.634  0.00  0.00     0.033 H 
BRANCH   7  10
ATOM     10  C9  FA4 d          26.744   2.896  13.652  0.00  0.00    -0.065 C 
ATOM     11  H9  FA4 d          26.408   2.489  12.686  0.00  0.00     0.033 H 
ATOM     12  H10 FA4 d          27.769   2.556  13.857  0.00  0.00     0.033 H 
BRANCH  10  13
ATOM     13  C8  FA4 d          25.824   2.366  14.752  0.00  0.00    -0.061 C 
ATOM     14  H7  FA4 d          25.578   1.317  14.532  0.00  0.00     0.033 H 
ATOM     15  H8  FA4 d          26.354   2.425  15.715  0.00  0.00     0.033 H 
BRANCH  13  16
ATOM     16  C7  FA4 d          24.515   3.167  14.861  0.00  0.00    -0.040 C 
ATOM     17  H5  FA4 d          24.107   3.042  15.876  0.00  0.00     0.040 H 
ATOM     18  H6  FA4 d          24.734   4.230  14.683  0.00  0.00     0.040 H 
BRANCH  16  19
ATOM     19  C3  FA4 d          23.480   2.710  13.864  0.00  0.00    -0.050 A 
ATOM     20  C2  FA4 d          22.972   1.372  13.940  0.00  0.00    -0.076 A 
ATOM     21  C1  FA4 d          21.993   0.910  13.009  0.00  0.00    -0.082 A 
ATOM     22  H2  FA4 d          23.335   0.702  14.711  0.00  0.00     0.084 H 
ATOM     23  C6  FA4 d          21.503   1.773  11.977  0.00  0.00    -0.082 A 
ATOM     24  H1  FA4 d          21.617  -0.104  13.084  0.00  0.00     0.083 H 
ATOM     25  C5  FA4 d          21.995   3.121  11.879  0.00  0.00    -0.075 A 
ATOM     26  H4  FA4 d          20.763   1.412  11.272  0.00  0.00     0.083 H 
ATOM     27  C4  FA4 d          22.981   3.603  12.810  0.00  0.00    -0.034 A 
ATOM     28  H3  FA4 d          21.621   3.777  11.101  0.00  0.00     0.084 H 
BRANCH  27  29
ATOM     29  C27 FA4 d          23.439   5.041  12.635  0.00  0.00     0.033 C 
ATOM     30  H37 FA4 d          24.028   5.119  11.710  0.00  0.00     0.072 H 
ATOM     31  H38 FA4 d          24.064   5.325  13.493  0.00  0.00     0.072 H 
BRANCH  29  32
ATOM     32  N28 FA4 d          22.293   5.955  12.553  0.00  0.00    -0.223 N 
ATOM     33  C29 FA4 d          21.819   6.591  13.681  0.00  0.00     0.665 C 
ATOM     34  N30 FA4 d          21.222   7.772  13.565  0.00  0.00    -0.235 N 
ATOM     35  N31 FA4 d          21.953   6.041  14.897  0.00  0.00    -0.235 N 
ATOM     36  H40 FA4 d          20.865   8.253  14.403  0.00  0.00     0.174 HD
ATOM     37  H41 FA4 d          21.116   8.206  12.637  0.00  0.00     0.174 HD
ATOM     38  H42 FA4 d          22.414   5.126  15.000  0.00  0.00     0.174 HD
ATOM     39  H43 FA4 d          21.595   6.533  15.728  0.00  0.00     0.174 HD
ATOM     40  H39 FA4 d          21.839   6.124  11.644  0.00  0.00     0.178 HD
ENDBRANCH  29  32
ENDBRANCH  27  29
ENDBRANCH  16  19
ENDBRANCH  13  16
ENDBRANCH  10  13
ENDBRANCH   7  10
ENDBRANCH   4   7
ENDBRANCH   1   4
BRANCH   1  41
ATOM     41  C13 FA4 d          29.864   4.559  15.395  0.00  0.00    -0.065 C 
ATOM     42  H17 FA4 d          29.420   3.570  15.585  0.00  0.00     0.033 H 
ATOM     43  H18 FA4 d          29.947   5.111  16.343  0.00  0.00     0.033 H 
BRANCH  41  44
ATOM     44  C14 FA4 d          31.269   4.362  14.817  0.00  0.00    -0.057 C 
ATOM     45  H19 FA4 d          31.255   4.669  13.760  0.00  0.00     0.033 H 
ATOM     46  H20 FA4 d          31.527   3.295  14.885  0.00  0.00     0.033 H 
BRANCH  44  47
ATOM     47  C15 FA4 d          32.350   5.168  15.539  0.00  0.00     0.009 C 
ATOM     48  H21 FA4 d          33.333   4.716  15.334  0.00  0.00     0.047 H 
ATOM     49  H22 FA4 d          32.155   5.144  16.621  0.00  0.00     0.047 H 
BRANCH  47  50
ATOM     50  C16 FA4 d          32.358   6.626  15.061  0.00  0.00     0.218 C 
ATOM     51  N17 FA4 d          32.315   7.483  16.105  0.00  0.00    -0.348 N 
ATOM     52  H23 FA4 d          32.275   7.116  17.034  0.00  0.00     0.163 HD
ATOM     53  O19 FA4 d          32.403   6.918  13.863  0.00  0.00    -0.274 OA
BRANCH  51  54
ATOM     54  C18 FA4 d          32.325   8.921  15.913  0.00  0.00     0.091 C 
ATOM     55  H24 FA4 d          32.381   9.150  14.840  0.00  0.00     0.087 H 
BRANCH  54  56
ATOM     56  C20 FA4 d          33.567   9.473  16.616  0.00  0.00    -0.038 C 
ATOM     57  H25 FA4 d          34.140   8.627  17.024  0.00  0.00     0.036 H 
ATOM     58  H26 FA4 d          33.240  10.125  17.439  0.00  0.00     0.036 H 
BRANCH  56  59
ATOM     59  C23 FA4 d          34.484  10.277  15.700  0.00  0.00    -0.061 C 
ATOM     60  H28 FA4 d          35.530  10.043  15.950  0.00  0.00     0.033 H 
ATOM     61  H29 FA4 d          34.299  11.349  15.863  0.00  0.00     0.033 H 
BRANCH  59  62
ATOM     62  C24 FA4 d          34.243   9.952  14.226  0.00  0.00    -0.043 C 
ATOM     63  H30 FA4 d          34.142  10.894  13.669  0.00  0.00     0.035 H 
ATOM     64  H31 FA4 d          33.311   9.374  14.140  0.00  0.00     0.035 H 
BRANCH  62  65
ATOM     65  C25 FA4 d          35.384   9.138  13.614  0.00  0.00     0.080 C 
ATOM     66  H32 FA4 d          35.955   8.665  14.425  0.00  0.00     0.075 H 
ATOM     67  H33 FA4 d          36.041   9.820  13.052  0.00  0.00     0.075 H 
BRANCH  65  68
ATOM     68  N26 FA4 d          34.907   8.099  12.710  0.00  0.00    -0.079 N 
ATOM     69  H34 FA4 d          35.152   7.194  13.079  0.00  0.00     0.274 HD
ATOM     70  H35 FA4 d          35.334   8.219  11.805  0.00  0.00     0.274 HD
ATOM     71  H36 FA4 d          33.906   8.165  12.620  0.00  0.00     0.274 HD
ENDBRANCH  65  68
ENDBRANCH  62  65
ENDBRANCH  59  62
ENDBRANCH  56  59
ENDBRANCH  54  56
BRANCH  54  72
ATOM     72  C21 FA4 d          31.037   9.538  16.487  0.00  0.00     0.263 C 
ATOM     73  N22 FA4 d          30.247   8.657  17.119  0.00  0.00    -0.236 N 
ATOM     74  H27 FA4 d          30.514   7.696  17.183  0.00  0.00     0.197 HD
ATOM     75  O33 FA4 d          30.791  10.734  16.366  0.00  0.00    -0.269 OA
BRANCH  73  76
ATOM     76  O32 FA4 d          29.048   9.094  17.688  0.00  0.00    -0.287 OA
ATOM     77  H44 FA4 d          28.319   8.660  17.259  0.00  0.00     0.244 HD
ENDBRANCH  73  76
ENDBRANCH  54  72
ENDBRANCH  51  54
ENDBRANCH  47  50
ENDBRANCH  44  47
ENDBRANCH  41  44
ENDBRANCH   1  41
TORSDOF 20
ENDMDL
MODEL 3
REMARK VINA RESULT:      -7.5      1.865      2.198
REMARK  20 active torsions:
REMARK  status: ('A' for Active; 'I' for Inactive)
REMARK    1  A    between atoms: C3_3  and  C7_7 
REMARK    2  A    between atoms: C4_4  and  C27_27 
REMARK    3  A    between atoms: C7_7  and  C8_8 
REMARK    4  A    between atoms: C8_8  and  C9_9 
REMARK    5  A    between atoms: C9_9  and  C10_10 
REMARK    6  A    between atoms: C10_10  and  C11_11 
REMARK    7  A    between atoms: C11_11  and  C12_12 
REMARK    8  A    between atoms: C12_12  and  C13_13 
REMARK    9  A    between atoms: C13_13  and  C14_14 
REMARK   10  A    between atoms: C14_14  and  C15_15 
REMARK   11  A    between atoms: C15_15  and  C16_16 
REMARK       I    between atoms: C16_16  and  N17_17 
REMARK   12  A    between atoms: N17_17  and  C18_18 
REMARK   13  A    between atoms: C18_18  and  C20_20 
REMARK   14  A    between atoms: C18_18  and  C21_21 
REMARK   15  A    between atoms: C20_20  and  C23_23 
REMARK       I    between atoms: C21_21  and  N22_22 
REMARK   16  A    between atoms: N22_22  and  O32_32 
REMARK   17  A    between atoms: C23_23  and  C24_24 
REMARK   18  A    between atoms: C24_24  and  C25_25 
REMARK   19  A    between atoms: C25_25  and  N26_26 
REMARK   20  A    between atoms: C27_27  and  N28_28 
REMARK       I    between atoms: N28_28  and  C29_29 
REMARK       I    between atoms: C29_29  and  N30_30 
ROOT
ATOM      1  C12 FA4 d          29.624   4.092  15.461  0.00  0.00    -0.065 C 
ATOM      2  H15 FA4 d          29.694   3.063  15.843  0.00  0.00     0.033 H 
ATOM      3  H16 FA4 d          29.652   4.799  16.302  0.00  0.00     0.033 H 
ENDROOT
BRANCH   1   4
ATOM      4  C11 FA4 d          28.285   4.252  14.735  0.00  0.00    -0.065 C 
ATOM      5  H13 FA4 d          27.549   4.670  15.438  0.00  0.00     0.033 H 
ATOM      6  H14 FA4 d          28.420   4.944  13.891  0.00  0.00     0.033 H 
BRANCH   4   7
ATOM      7  C10 FA4 d          27.753   2.920  14.200  0.00  0.00    -0.065 C 
ATOM      8  H11 FA4 d          27.472   3.055  13.145  0.00  0.00     0.033 H 
ATOM      9  H12 FA4 d          28.553   2.169  14.273  0.00  0.00     0.033 H 
BRANCH   7  10
ATOM     10  C9  FA4 d          26.532   2.404  14.967  0.00  0.00    -0.065 C 
ATOM     11  H9  FA4 d          26.215   1.448  14.523  0.00  0.00     0.033 H 
ATOM     12  H10 FA4 d          26.817   2.245  16.017  0.00  0.00     0.033 H 
BRANCH  10  13
ATOM     13  C8  FA4 d          25.353   3.377  14.924  0.00  0.00    -0.061 C 
ATOM     14  H7  FA4 d          25.649   4.313  15.420  0.00  0.00     0.033 H 
ATOM     15  H8  FA4 d          25.103   3.583  13.872  0.00  0.00     0.033 H 
BRANCH  13  16
ATOM     16  C7  FA4 d          24.103   2.820  15.627  0.00  0.00    -0.040 C 
ATOM     17  H5  FA4 d          24.379   1.897  16.159  0.00  0.00     0.040 H 
ATOM     18  H6  FA4 d          23.743   3.566  16.351  0.00  0.00     0.040 H 
BRANCH  16  19
ATOM     19  C3  FA4 d          22.992   2.508  14.658  0.00  0.00    -0.050 A 
ATOM     20  C2  FA4 d          23.020   1.274  13.928  0.00  0.00    -0.076 A 
ATOM     21  C1  FA4 d          21.983   0.950  13.002  0.00  0.00    -0.082 A 
ATOM     22  H2  FA4 d          23.838   0.579  14.080  0.00  0.00     0.084 H 
ATOM     23  C6  FA4 d          20.895   1.855  12.780  0.00  0.00    -0.082 A 
ATOM     24  H1  FA4 d          22.018   0.011  12.462  0.00  0.00     0.083 H 
ATOM     25  C5  FA4 d          20.842   3.099  13.500  0.00  0.00    -0.075 A 
ATOM     26  H4  FA4 d          20.114   1.603  12.071  0.00  0.00     0.083 H 
ATOM     27  C4  FA4 d          21.879   3.440  14.438  0.00  0.00    -0.034 A 
ATOM     28  H3  FA4 d          20.017   3.782  13.335  0.00  0.00     0.084 H 
BRANCH  27  29
ATOM     29  C27 FA4 d          21.737   4.771  15.156  0.00  0.00     0.033 C 
ATOM     30  H37 FA4 d          22.738   5.147  15.414  0.00  0.00     0.072 H 
ATOM     31  H38 FA4 d          21.154   4.621  16.075  0.00  0.00     0.072 H 
BRANCH  29  32
ATOM     32  N28 FA4 d          21.056   5.759  14.311  0.00  0.00    -0.223 N 
ATOM     33  C29 FA4 d          21.780   6.645  13.542  0.00  0.00     0.665 C 
ATOM     34  N30 FA4 d          21.255   7.115  12.416  0.00  0.00    -0.235 N 
ATOM     35  N31 FA4 d          23.009   7.040  13.907  0.00  0.00    -0.235 N 
ATOM     36  H40 FA4 d          21.790   7.778  11.835  0.00  0.00     0.174 HD
ATOM     37  H41 FA4 d          20.314   6.817  12.123  0.00  0.00     0.174 HD
ATOM     38  H42 FA4 d          23.426   6.683  14.778  0.00  0.00     0.174 HD
ATOM     39  H43 FA4 d          23.534   7.700  13.317  0.00  0.00     0.174 HD
ATOM     40  H39 FA4 d          20.026   5.791  14.292  0.00  0.00     0.178 HD
ENDBRANCH  29  32
ENDBRANCH  27  29
ENDBRANCH  16  19
ENDBRANCH  13  16
ENDBRANCH  10  13
ENDBRANCH   7  10
ENDBRANCH   4   7
ENDBRANCH   1   4
BRANCH   1  41
ATOM     41  C13 FA4 d          30.828   4.359  14.564  0.00  0.00    -0.065 C 
ATOM     42  H17 FA4 d          30.549   5.116  13.817  0.00  0.00     0.033 H 
ATOM     43  H18 FA4 d          31.101   3.423  14.054  0.00  0.00     0.033 H 
BRANCH  41  44
ATOM     44  C14 FA4 d          32.046   4.866  15.344  0.00  0.00    -0.057 C 
ATOM     45  H19 FA4 d          32.825   5.152  14.622  0.00  0.00     0.033 H 
ATOM     46  H20 FA4 d          32.417   4.048  15.979  0.00  0.00     0.033 H 
BRANCH  44  47
ATOM     47  C15 FA4 d          31.748   6.072  16.236  0.00  0.00     0.009 C 
ATOM     48  H21 FA4 d          31.764   5.755  17.289  0.00  0.00     0.047 H 
ATOM     49  H22 FA4 d          30.751   6.467  15.987  0.00  0.00     0.047 H 
BRANCH  47  50
ATOM     50  C16 FA4 d          32.792   7.178  16.027  0.00  0.00     0.218 C 
ATOM     51  N17 FA4 d          32.935   7.474  14.717  0.00  0.00    -0.348 N 
ATOM     52  H23 FA4 d          32.392   6.974  14.042  0.00  0.00     0.163 HD
ATOM     53  O19 FA4 d          33.389   7.696  16.975  0.00  0.00    -0.274 OA
BRANCH  51  54
ATOM     54  C18 FA4 d          33.857   8.498  14.262  0.00  0.00     0.091 C 
ATOM     55  H24 FA4 d          34.709   8.562  14.954  0.00  0.00     0.087 H 
BRANCH  54  56
ATOM     56  C20 FA4 d          33.104   9.831  14.261  0.00  0.00    -0.038 C 
ATOM     57  H25 FA4 d          32.050   9.634  14.507  0.00  0.00     0.036 H 
ATOM     58  H26 FA4 d          33.170  10.267  13.253  0.00  0.00     0.036 H 
BRANCH  56  59
ATOM     59  C23 FA4 d          33.649  10.845  15.261  0.00  0.00    -0.061 C 
ATOM     60  H28 FA4 d          33.009  10.842  16.156  0.00  0.00     0.033 H 
ATOM     61  H29 FA4 d          33.631  11.844  14.801  0.00  0.00     0.033 H 
BRANCH  59  62
ATOM     62  C24 FA4 d          35.083  10.518  15.678  0.00  0.00    -0.043 C 
ATOM     63  H30 FA4 d          35.511   9.815  14.948  0.00  0.00     0.035 H 
ATOM     64  H31 FA4 d          35.064  10.047  16.672  0.00  0.00     0.035 H 
BRANCH  62  65
ATOM     65  C25 FA4 d          35.971  11.762  15.740  0.00  0.00     0.080 C 
ATOM     66  H32 FA4 d          35.715  12.333  16.644  0.00  0.00     0.075 H 
ATOM     67  H33 FA4 d          35.777  12.379  14.850  0.00  0.00     0.075 H 
BRANCH  65  68
ATOM     68  N26 FA4 d          37.391  11.434  15.782  0.00  0.00    -0.079 N 
ATOM     69  H34 FA4 d          37.890  12.018  15.130  0.00  0.00     0.274 HD
ATOM     70  H35 FA4 d          37.519  10.466  15.532  0.00  0.00     0.274 HD
ATOM     71  H36 FA4 d          37.745  11.591  16.712  0.00  0.00     0.274 HD
ENDBRANCH  65  68
ENDBRANCH  62  65
ENDBRANCH  59  62
ENDBRANCH  56  59
ENDBRANCH  54  56
BRANCH  54  72
ATOM     72  C21 FA4 d          34.380   8.151  12.857  0.00  0.00     0.263 C 
ATOM     73  N22 FA4 d          35.433   8.887  12.473  0.00  0.00    -0.236 N 
ATOM     74  H27 FA4 d          35.807   9.588  13.080  0.00  0.00     0.197 HD
ATOM     75  O33 FA4 d          33.861   7.268  12.181  0.00  0.00    -0.269 OA
BRANCH  73  76
ATOM     76  O32 FA4 d          36.004   8.666  11.216  0.00  0.00    -0.287 OA
ATOM     77  H44 FA4 d          36.879   8.310  11.326  0.00  0.00     0.244 HD
ENDBRANCH  73  76
ENDBRANCH  54  72
ENDBRANCH  51  54
ENDBRANCH  47  50
ENDBRANCH  44  47
ENDBRANCH  41  44
ENDBRANCH   1  41
TORSDOF 20
ENDMDL
MODEL 4
REMARK VINA RESULT:      -7.3      4.234     11.331
REMARK  20 active torsions:
REMARK  status: ('A' for Active; 'I' for Inactive)
REMARK    1  A    between atoms: C3_3  and  C7_7 
REMARK    2  A    between atoms: C4_4  and  C27_27 
REMARK    3  A    between atoms: C7_7  and  C8_8 
REMARK    4  A    between atoms: C8_8  and  C9_9 
REMARK    5  A    between atoms: C9_9  and  C10_10 
REMARK    6  A    between atoms: C10_10  and  C11_11 
REMARK    7  A    between atoms: C11_11  and  C12_12 
REMARK    8  A    between atoms: C12_12  and  C13_13 
REMARK    9  A    between atoms: C13_13  and  C14_14 
REMARK   10  A    between atoms: C14_14  and  C15_15 
REMARK   11  A    between atoms: C15_15  and  C16_16 
REMARK       I    between atoms: C16_16  and  N17_17 
REMARK   12  A    between atoms: N17_17  and  C18_18 
REMARK   13  A    between atoms: C18_18  and  C20_20 
REMARK   14  A    between atoms: C18_18  and  C21_21 
REMARK   15  A    between atoms: C20_20  and  C23_23 
REMARK       I    between atoms: C21_21  and  N22_22 
REMARK   16  A    between atoms: N22_22  and  O32_32 
REMARK   17  A    between atoms: C23_23  and  C24_24 
REMARK   18  A    between atoms: C24_24  and  C25_25 
REMARK   19  A    between atoms: C25_25  and  N26_26 
REMARK   20  A    between atoms: C27_27  and  N28_28 
REMARK       I    between atoms: N28_28  and  C29_29 
REMARK       I    between atoms: C29_29  and  N30_30 
ROOT
ATOM      1  C12 FA4 d          27.903   2.769  14.842  0.00  0.00    -0.065 C 
ATOM      2  H15 FA4 d          27.284   2.400  15.673  0.00  0.00     0.033 H 
ATOM      3  H16 FA4 d          28.512   1.945  14.444  0.00  0.00     0.033 H 
ENDROOT
BRANCH   1   4
ATOM      4  C11 FA4 d          28.842   3.854  15.377  0.00  0.00    -0.065 C 
ATOM      5  H13 FA4 d          28.524   4.126  16.395  0.00  0.00     0.033 H 
ATOM      6  H14 FA4 d          29.865   3.452  15.408  0.00  0.00     0.033 H 
BRANCH   4   7
ATOM      7  C10 FA4 d          28.832   5.112  14.505  0.00  0.00    -0.065 C 
ATOM      8  H11 FA4 d          28.986   4.813  13.458  0.00  0.00     0.033 H 
ATOM      9  H12 FA4 d          27.851   5.600  14.607  0.00  0.00     0.033 H 
BRANCH   7  10
ATOM     10  C9  FA4 d          29.919   6.121  14.888  0.00  0.00    -0.065 C 
ATOM     11  H9  FA4 d          30.397   6.489  13.968  0.00  0.00     0.033 H 
ATOM     12  H10 FA4 d          29.447   6.963  15.417  0.00  0.00     0.033 H 
BRANCH  10  13
ATOM     13  C8  FA4 d          30.995   5.517  15.791  0.00  0.00    -0.061 C 
ATOM     14  H7  FA4 d          30.763   5.773  16.836  0.00  0.00     0.033 H 
ATOM     15  H8  FA4 d          30.984   4.424  15.670  0.00  0.00     0.033 H 
BRANCH  13  16
ATOM     16  C7  FA4 d          32.403   6.037  15.457  0.00  0.00    -0.040 C 
ATOM     17  H5  FA4 d          33.145   5.387  15.946  0.00  0.00     0.040 H 
ATOM     18  H6  FA4 d          32.545   5.999  14.367  0.00  0.00     0.040 H 
BRANCH  16  19
ATOM     19  C3  FA4 d          32.617   7.454  15.925  0.00  0.00    -0.050 A 
ATOM     20  C2  FA4 d          32.240   7.818  17.260  0.00  0.00    -0.076 A 
ATOM     21  C1  FA4 d          32.429   9.153  17.732  0.00  0.00    -0.082 A 
ATOM     22  H2  FA4 d          31.807   7.074  17.918  0.00  0.00     0.084 H 
ATOM     23  C6  FA4 d          32.993  10.155  16.879  0.00  0.00    -0.082 A 
ATOM     24  H1  FA4 d          32.142   9.409  18.745  0.00  0.00     0.083 H 
ATOM     25  C5  FA4 d          33.380   9.816  15.537  0.00  0.00    -0.075 A 
ATOM     26  H4  FA4 d          33.128  11.167  17.245  0.00  0.00     0.083 H 
ATOM     27  C4  FA4 d          33.198   8.475  15.045  0.00  0.00    -0.034 A 
ATOM     28  H3  FA4 d          33.811  10.573  14.892  0.00  0.00     0.084 H 
BRANCH  27  29
ATOM     29  C27 FA4 d          33.641   8.207  13.617  0.00  0.00     0.033 C 
ATOM     30  H37 FA4 d          33.075   8.861  12.938  0.00  0.00     0.072 H 
ATOM     31  H38 FA4 d          33.435   7.156  13.369  0.00  0.00     0.072 H 
BRANCH  29  32
ATOM     32  N28 FA4 d          35.076   8.468  13.449  0.00  0.00    -0.223 N 
ATOM     33  C29 FA4 d          35.543   9.140  12.340  0.00  0.00     0.665 C 
ATOM     34  N30 FA4 d          36.660   9.854  12.430  0.00  0.00    -0.235 N 
ATOM     35  N31 FA4 d          34.889   9.092  11.171  0.00  0.00    -0.235 N 
ATOM     36  H40 FA4 d          37.016  10.359  11.606  0.00  0.00     0.174 HD
ATOM     37  H41 FA4 d          37.170   9.902  13.323  0.00  0.00     0.174 HD
ATOM     38  H42 FA4 d          34.022   8.542  11.089  0.00  0.00     0.174 HD
ATOM     39  H43 FA4 d          35.253   9.604  10.355  0.00  0.00     0.174 HD
ATOM     40  H39 FA4 d          35.740   8.145  14.168  0.00  0.00     0.178 HD
ENDBRANCH  29  32
ENDBRANCH  27  29
ENDBRANCH  16  19
ENDBRANCH  13  16
ENDBRANCH  10  13
ENDBRANCH   7  10
ENDBRANCH   4   7
ENDBRANCH   1   4
BRANCH   1  41
ATOM     41  C13 FA4 d          26.979   3.268  13.735  0.00  0.00    -0.065 C 
ATOM     42  H17 FA4 d          26.995   2.541  12.910  0.00  0.00     0.033 H 
ATOM     43  H18 FA4 d          27.352   4.238  13.377  0.00  0.00     0.033 H 
BRANCH  41  44
ATOM     44  C14 FA4 d          25.532   3.442  14.207  0.00  0.00    -0.057 C 
ATOM     45  H19 FA4 d          24.869   3.343  13.334  0.00  0.00     0.033 H 
ATOM     46  H20 FA4 d          25.425   4.449  14.636  0.00  0.00     0.033 H 
BRANCH  44  47
ATOM     47  C15 FA4 d          25.099   2.421  15.260  0.00  0.00     0.009 C 
ATOM     48  H21 FA4 d          25.824   2.428  16.088  0.00  0.00     0.047 H 
ATOM     49  H22 FA4 d          25.076   1.420  14.802  0.00  0.00     0.047 H 
BRANCH  47  50
ATOM     50  C16 FA4 d          23.705   2.756  15.807  0.00  0.00     0.218 C 
ATOM     51  N17 FA4 d          22.836   3.017  14.806  0.00  0.00    -0.348 N 
ATOM     52  H23 FA4 d          23.159   2.981  13.860  0.00  0.00     0.163 HD
ATOM     53  O19 FA4 d          23.466   2.765  17.018  0.00  0.00    -0.274 OA
BRANCH  51  54
ATOM     54  C18 FA4 d          21.448   3.349  15.066  0.00  0.00     0.091 C 
ATOM     55  H24 FA4 d          21.107   2.824  15.971  0.00  0.00     0.087 H 
BRANCH  54  56
ATOM     56  C20 FA4 d          20.626   2.876  13.865  0.00  0.00    -0.038 C 
ATOM     57  H25 FA4 d          20.321   3.759  13.284  0.00  0.00     0.036 H 
ATOM     58  H26 FA4 d          19.731   2.356  14.240  0.00  0.00     0.036 H 
BRANCH  56  59
ATOM     59  C23 FA4 d          21.381   1.928  12.939  0.00  0.00    -0.061 C 
ATOM     60  H28 FA4 d          20.843   0.969  12.897  0.00  0.00     0.033 H 
ATOM     61  H29 FA4 d          22.391   1.765  13.343  0.00  0.00     0.033 H 
BRANCH  59  62
ATOM     62  C24 FA4 d          21.499   2.491  11.523  0.00  0.00    -0.043 C 
ATOM     63  H30 FA4 d          20.750   2.000  10.884  0.00  0.00     0.035 H 
ATOM     64  H31 FA4 d          22.506   2.274  11.139  0.00  0.00     0.035 H 
BRANCH  62  65
ATOM     65  C25 FA4 d          21.270   4.003  11.475  0.00  0.00     0.080 C 
ATOM     66  H32 FA4 d          20.457   4.259  12.170  0.00  0.00     0.075 H 
ATOM     67  H33 FA4 d          20.979   4.283  10.451  0.00  0.00     0.075 H 
BRANCH  65  68
ATOM     68  N26 FA4 d          22.458   4.760  11.847  0.00  0.00    -0.079 N 
ATOM     69  H34 FA4 d          22.223   5.420  12.571  0.00  0.00     0.274 HD
ATOM     70  H35 FA4 d          22.806   5.257  11.041  0.00  0.00     0.274 HD
ATOM     71  H36 FA4 d          23.167   4.129  12.184  0.00  0.00     0.274 HD
ENDBRANCH  65  68
ENDBRANCH  62  65
ENDBRANCH  59  62
ENDBRANCH  56  59
ENDBRANCH  54  56
BRANCH  54  72
ATOM     72  C21 FA4 d          21.300   4.865  15.284  0.00  0.00     0.263 C 
ATOM     73  N22 FA4 d          21.604   5.267  16.526  0.00  0.00    -0.236 N 
ATOM     74  H27 FA4 d          21.894   4.603  17.215  0.00  0.00     0.197 HD
ATOM     75  O33 FA4 d          20.942   5.610  14.377  0.00  0.00    -0.269 OA
BRANCH  73  76
ATOM     76  O32 FA4 d          21.513   6.624  16.851  0.00  0.00    -0.287 OA
ATOM     77  H44 FA4 d          21.551   6.725  17.796  0.00  0.00     0.244 HD
ENDBRANCH  73  76
ENDBRANCH  54  72
ENDBRANCH  51  54
ENDBRANCH  47  50
ENDBRANCH  44  47
ENDBRANCH  41  44
ENDBRANCH   1  41
TORSDOF 20
ENDMDL
MODEL 5
REMARK VINA RESULT:      -7.3      1.823      2.274
REMARK  20 active torsions:
REMARK  status: ('A' for Active; 'I' for Inactive)
REMARK    1  A    between atoms: C3_3  and  C7_7 
REMARK    2  A    between atoms: C4_4  and  C27_27 
REMARK    3  A    between atoms: C7_7  and  C8_8 
REMARK    4  A    between atoms: C8_8  and  C9_9 
REMARK    5  A    between atoms: C9_9  and  C10_10 
REMARK    6  A    between atoms: C10_10  and  C11_11 
REMARK    7  A    between atoms: C11_11  and  C12_12 
REMARK    8  A    between atoms: C12_12  and  C13_13 
REMARK    9  A    between atoms: C13_13  and  C14_14 
REMARK   10  A    between atoms: C14_14  and  C15_15 
REMARK   11  A    between atoms: C15_15  and  C16_16 
REMARK       I    between atoms: C16_16  and  N17_17 
REMARK   12  A    between atoms: N17_17  and  C18_18 
REMARK   13  A    between atoms: C18_18  and  C20_20 
REMARK   14  A    between atoms: C18_18  and  C21_21 
REMARK   15  A    between atoms: C20_20  and  C23_23 
REMARK       I    between atoms: C21_21  and  N22_22 
REMARK   16  A    between atoms: N22_22  and  O32_32 
REMARK   17  A    between atoms: C23_23  and  C24_24 
REMARK   18  A    between atoms: C24_24  and  C25_25 
REMARK   19  A    between atoms: C25_25  and  N26_26 
REMARK   20  A    between atoms: C27_27  and  N28_28 
REMARK       I    between atoms: N28_28  and  C29_29 
REMARK       I    between atoms: C29_29  and  N30_30 
ROOT
ATOM      1  C12 FA4 d          28.111   3.390  15.152  0.00  0.00    -0.065 C 
ATOM      2  H15 FA4 d          28.016   2.322  14.905  0.00  0.00     0.033 H 
ATOM      3  H16 FA4 d          28.105   3.515  16.245  0.00  0.00     0.033 H 
ENDROOT
BRANCH   1   4
ATOM      4  C11 FA4 d          26.906   4.133  14.571  0.00  0.00    -0.065 C 
ATOM      5  H13 FA4 d          26.222   4.397  15.392  0.00  0.00     0.033 H 
ATOM      6  H14 FA4 d          27.260   5.052  14.080  0.00  0.00     0.033 H 
BRANCH   4   7
ATOM      7  C10 FA4 d          26.142   3.290  13.546  0.00  0.00    -0.065 C 
ATOM      8  H11 FA4 d          25.311   3.891  13.150  0.00  0.00     0.033 H 
ATOM      9  H12 FA4 d          26.829   3.029  12.728  0.00  0.00     0.033 H 
BRANCH   7  10
ATOM     10  C9  FA4 d          25.572   1.996  14.133  0.00  0.00    -0.065 C 
ATOM     11  H9  FA4 d          25.126   1.406  13.318  0.00  0.00     0.033 H 
ATOM     12  H10 FA4 d          26.393   1.426  14.592  0.00  0.00     0.033 H 
BRANCH  10  13
ATOM     13  C8  FA4 d          24.500   2.250  15.195  0.00  0.00    -0.061 C 
ATOM     14  H7  FA4 d          24.867   1.876  16.162  0.00  0.00     0.033 H 
ATOM     15  H8  FA4 d          24.322   3.334  15.264  0.00  0.00     0.033 H 
BRANCH  13  16
ATOM     16  C7  FA4 d          23.170   1.551  14.867  0.00  0.00    -0.040 C 
ATOM     17  H5  FA4 d          23.370   0.490  14.656  0.00  0.00     0.040 H 
ATOM     18  H6  FA4 d          22.504   1.633  15.739  0.00  0.00     0.040 H 
BRANCH  16  19
ATOM     19  C3  FA4 d          22.482   2.162  13.672  0.00  0.00    -0.050 A 
ATOM     20  C2  FA4 d          22.475   1.451  12.426  0.00  0.00    -0.076 A 
ATOM     21  C1  FA4 d          21.833   2.004  11.276  0.00  0.00    -0.082 A 
ATOM     22  H2  FA4 d          22.962   0.486  12.355  0.00  0.00     0.084 H 
ATOM     23  C6  FA4 d          21.188   3.280  11.344  0.00  0.00    -0.082 A 
ATOM     24  H1  FA4 d          21.833   1.451  10.344  0.00  0.00     0.083 H 
ATOM     25  C5  FA4 d          21.180   4.012  12.581  0.00  0.00    -0.075 A 
ATOM     26  H4  FA4 d          20.707   3.694  10.464  0.00  0.00     0.083 H 
ATOM     27  C4  FA4 d          21.821   3.470  13.750  0.00  0.00    -0.034 A 
ATOM     28  H3  FA4 d          20.688   4.977  12.634  0.00  0.00     0.084 H 
BRANCH  27  29
ATOM     29  C27 FA4 d          21.758   4.310  15.014  0.00  0.00     0.033 C 
ATOM     30  H37 FA4 d          22.517   3.949  15.723  0.00  0.00     0.072 H 
ATOM     31  H38 FA4 d          20.759   4.207  15.462  0.00  0.00     0.072 H 
BRANCH  29  32
ATOM     32  N28 FA4 d          22.008   5.727  14.722  0.00  0.00    -0.223 N 
ATOM     33  C29 FA4 d          21.195   6.708  15.249  0.00  0.00     0.665 C 
ATOM     34  N30 FA4 d          21.692   7.918  15.476  0.00  0.00    -0.235 N 
ATOM     35  N31 FA4 d          19.909   6.462  15.542  0.00  0.00    -0.235 N 
ATOM     36  H40 FA4 d          21.092   8.657  15.870  0.00  0.00     0.174 HD
ATOM     37  H41 FA4 d          22.679   8.118  15.259  0.00  0.00     0.174 HD
ATOM     38  H42 FA4 d          19.512   5.527  15.370  0.00  0.00     0.174 HD
ATOM     39  H43 FA4 d          19.320   7.207  15.938  0.00  0.00     0.174 HD
ATOM     40  H39 FA4 d          22.800   5.991  14.118  0.00  0.00     0.178 HD
ENDBRANCH  29  32
ENDBRANCH  27  29
ENDBRANCH  16  19
ENDBRANCH  13  16
ENDBRANCH  10  13
ENDBRANCH   7  10
ENDBRANCH   4   7
ENDBRANCH   1   4
BRANCH   1  41
ATOM     41  C13 FA4 d          29.445   3.895  14.614  0.00  0.00    -0.065 C 
ATOM     42  H17 FA4 d          29.251   4.707  13.898  0.00  0.00     0.033 H 
ATOM     43  H18 FA4 d          29.953   3.066  14.098  0.00  0.00     0.033 H 
BRANCH  41  44
ATOM     44  C14 FA4 d          30.367   4.424  15.718  0.00  0.00    -0.057 C 
ATOM     45  H19 FA4 d          31.335   4.684  15.266  0.00  0.00     0.033 H 
ATOM     46  H20 FA4 d          30.512   3.627  16.461  0.00  0.00     0.033 H 
BRANCH  44  47
ATOM     47  C15 FA4 d          29.822   5.660  16.435  0.00  0.00     0.009 C 
ATOM     48  H21 FA4 d          29.956   5.535  17.520  0.00  0.00     0.047 H 
ATOM     49  H22 FA4 d          28.750   5.765  16.208  0.00  0.00     0.047 H 
BRANCH  47  50
ATOM     50  C16 FA4 d          30.559   6.927  15.979  0.00  0.00     0.218 C 
ATOM     51  N17 FA4 d          31.860   6.893  16.343  0.00  0.00    -0.348 N 
ATOM     52  H23 FA4 d          32.203   6.103  16.851  0.00  0.00     0.163 HD
ATOM     53  O19 FA4 d          29.985   7.826  15.359  0.00  0.00    -0.274 OA
BRANCH  51  54
ATOM     54  C18 FA4 d          32.773   7.972  16.016  0.00  0.00     0.091 C 
ATOM     55  H24 FA4 d          33.745   7.792  16.497  0.00  0.00     0.087 H 
BRANCH  54  56
ATOM     56  C20 FA4 d          32.170   9.269  16.560  0.00  0.00    -0.038 C 
ATOM     57  H25 FA4 d          31.259   9.019  17.124  0.00  0.00     0.036 H 
ATOM     58  H26 FA4 d          31.909   9.915  15.708  0.00  0.00     0.036 H 
BRANCH  56  59
ATOM     59  C23 FA4 d          33.107  10.043  17.480  0.00  0.00    -0.061 C 
ATOM     60  H28 FA4 d          33.700   9.327  18.069  0.00  0.00     0.033 H 
ATOM     61  H29 FA4 d          32.506  10.667  18.158  0.00  0.00     0.033 H 
BRANCH  59  62
ATOM     62  C24 FA4 d          34.060  10.944  16.694  0.00  0.00    -0.043 C 
ATOM     63  H30 FA4 d          34.780  10.311  16.156  0.00  0.00     0.035 H 
ATOM     64  H31 FA4 d          34.599  11.591  17.402  0.00  0.00     0.035 H 
BRANCH  62  65
ATOM     65  C25 FA4 d          33.327  11.826  15.682  0.00  0.00     0.080 C 
ATOM     66  H32 FA4 d          33.337  12.864  16.046  0.00  0.00     0.075 H 
ATOM     67  H33 FA4 d          32.288  11.476  15.597  0.00  0.00     0.075 H 
BRANCH  65  68
ATOM     68  N26 FA4 d          33.942  11.789  14.361  0.00  0.00    -0.079 N 
ATOM     69  H34 FA4 d          33.380  11.225  13.744  0.00  0.00     0.274 HD
ATOM     70  H35 FA4 d          34.866  11.390  14.431  0.00  0.00     0.274 HD
ATOM     71  H36 FA4 d          34.007  12.725  13.994  0.00  0.00     0.274 HD
ENDBRANCH  65  68
ENDBRANCH  62  65
ENDBRANCH  59  62
ENDBRANCH  56  59
ENDBRANCH  54  56
BRANCH  54  72
ATOM     72  C21 FA4 d          32.977   8.046  14.492  0.00  0.00     0.263 C 
ATOM     73  N22 FA4 d          33.297   6.872  13.930  0.00  0.00    -0.236 N 
ATOM     74  H27 FA4 d          33.386   6.050  14.492  0.00  0.00     0.197 HD
ATOM     75  O33 FA4 d          32.842   9.100  13.879  0.00  0.00    -0.269 OA
BRANCH  73  76
ATOM     76  O32 FA4 d          33.506   6.805  12.549  0.00  0.00    -0.287 OA
ATOM     77  H44 FA4 d          34.274   7.317  12.321  0.00  0.00     0.244 HD
ENDBRANCH  73  76
ENDBRANCH  54  72
ENDBRANCH  51  54
ENDBRANCH  47  50
ENDBRANCH  44  47
ENDBRANCH  41  44
ENDBRANCH   1  41
TORSDOF 20
ENDMDL
MODEL 6
REMARK VINA RESULT:      -7.2      4.006     10.628
REMARK  20 active torsions:
REMARK  status: ('A' for Active; 'I' for Inactive)
REMARK    1  A    between atoms: C3_3  and  C7_7 
REMARK    2  A    between atoms: C4_4  and  C27_27 
REMARK    3  A    between atoms: C7_7  and  C8_8 
REMARK    4  A    between atoms: C8_8  and  C9_9 
REMARK    5  A    between atoms: C9_9  and  C10_10 
REMARK    6  A    between atoms: C10_10  and  C11_11 
REMARK    7  A    between atoms: C11_11  and  C12_12 
REMARK    8  A    between atoms: C12_12  and  C13_13 
REMARK    9  A    between atoms: C13_13  and  C14_14 
REMARK   10  A    between atoms: C14_14  and  C15_15 
REMARK   11  A    between atoms: C15_15  and  C16_16 
REMARK       I    between atoms: C16_16  and  N17_17 
REMARK   12  A    between atoms: N17_17  and  C18_18 
REMARK   13  A    between atoms: C18_18  and  C20_20 
REMARK   14  A    between atoms: C18_18  and  C21_21 
REMARK   15  A    between atoms: C20_20  and  C23_23 
REMARK       I    between atoms: C21_21  and  N22_22 
REMARK   16  A    between atoms: N22_22  and  O32_32 
REMARK   17  A    between atoms: C23_23  and  C24_24 
REMARK   18  A    between atoms: C24_24  and  C25_25 
REMARK   19  A    between atoms: C25_25  and  N26_26 
REMARK   20  A    between atoms: C27_27  and  N28_28 
REMARK       I    between atoms: N28_28  and  C29_29 
REMARK       I    between atoms: C29_29  and  N30_30 
ROOT
ATOM      1  C12 FA4 d          28.655   3.687  15.517  0.00  0.00    -0.065 C 
ATOM      2  H15 FA4 d          28.192   4.499  16.097  0.00  0.00     0.033 H 
ATOM      3  H16 FA4 d          28.934   2.866  16.193  0.00  0.00     0.033 H 
ENDROOT
BRANCH   1   4
ATOM      4  C11 FA4 d          29.926   4.225  14.854  0.00  0.00    -0.065 C 
ATOM      5  H13 FA4 d          30.798   3.892  15.437  0.00  0.00     0.033 H 
ATOM      6  H14 FA4 d          29.991   3.821  13.833  0.00  0.00     0.033 H 
BRANCH   4   7
ATOM      7  C10 FA4 d          29.939   5.754  14.780  0.00  0.00    -0.065 C 
ATOM      8  H11 FA4 d          30.971   6.102  14.934  0.00  0.00     0.033 H 
ATOM      9  H12 FA4 d          29.594   6.058  13.781  0.00  0.00     0.033 H 
BRANCH   7  10
ATOM     10  C9  FA4 d          29.040   6.418  15.828  0.00  0.00    -0.065 C 
ATOM     11  H9  FA4 d          28.606   7.330  15.392  0.00  0.00     0.033 H 
ATOM     12  H10 FA4 d          28.233   5.719  16.093  0.00  0.00     0.033 H 
BRANCH  10  13
ATOM     13  C8  FA4 d          29.796   6.797  17.102  0.00  0.00    -0.061 C 
ATOM     14  H7  FA4 d          29.281   7.644  17.579  0.00  0.00     0.033 H 
ATOM     15  H8  FA4 d          29.792   5.933  17.784  0.00  0.00     0.033 H 
BRANCH  13  16
ATOM     16  C7  FA4 d          31.254   7.199  16.823  0.00  0.00    -0.040 C 
ATOM     17  H5  FA4 d          31.835   7.088  17.750  0.00  0.00     0.040 H 
ATOM     18  H6  FA4 d          31.664   6.529  16.052  0.00  0.00     0.040 H 
BRANCH  16  19
ATOM     19  C3  FA4 d          31.374   8.623  16.343  0.00  0.00    -0.050 A 
ATOM     20  C2  FA4 d          30.703   9.666  17.062  0.00  0.00    -0.076 A 
ATOM     21  C1  FA4 d          30.796  11.025  16.632  0.00  0.00    -0.082 A 
ATOM     22  H2  FA4 d          30.119   9.422  17.942  0.00  0.00     0.084 H 
ATOM     23  C6  FA4 d          31.557  11.371  15.470  0.00  0.00    -0.082 A 
ATOM     24  H1  FA4 d          30.286  11.801  17.191  0.00  0.00     0.083 H 
ATOM     25  C5  FA4 d          32.240  10.344  14.730  0.00  0.00    -0.075 A 
ATOM     26  H4  FA4 d          31.618  12.404  15.148  0.00  0.00     0.083 H 
ATOM     27  C4  FA4 d          32.158   8.970  15.151  0.00  0.00    -0.034 A 
ATOM     28  H3  FA4 d          32.820  10.606  13.853  0.00  0.00     0.084 H 
BRANCH  27  29
ATOM     29  C27 FA4 d          32.916   7.954  14.314  0.00  0.00     0.033 C 
ATOM     30  H37 FA4 d          32.271   7.616  13.489  0.00  0.00     0.072 H 
ATOM     31  H38 FA4 d          33.182   7.095  14.946  0.00  0.00     0.072 H 
BRANCH  29  32
ATOM     32  N28 FA4 d          34.143   8.537  13.756  0.00  0.00    -0.223 N 
ATOM     33  C29 FA4 d          34.640   8.102  12.545  0.00  0.00     0.665 C 
ATOM     34  N30 FA4 d          35.346   8.936  11.790  0.00  0.00    -0.235 N 
ATOM     35  N31 FA4 d          34.420   6.852  12.112  0.00  0.00    -0.235 N 
ATOM     36  H40 FA4 d          35.721   8.620  10.885  0.00  0.00     0.174 HD
ATOM     37  H41 FA4 d          35.518   9.900  12.111  0.00  0.00     0.174 HD
ATOM     38  H42 FA4 d          33.874   6.196  12.689  0.00  0.00     0.174 HD
ATOM     39  H43 FA4 d          34.798   6.548  11.204  0.00  0.00     0.174 HD
ATOM     40  H39 FA4 d          34.636   9.279  14.273  0.00  0.00     0.178 HD
ENDBRANCH  29  32
ENDBRANCH  27  29
ENDBRANCH  16  19
ENDBRANCH  13  16
ENDBRANCH  10  13
ENDBRANCH   7  10
ENDBRANCH   4   7
ENDBRANCH   1   4
BRANCH   1  41
ATOM     41  C13 FA4 d          27.632   3.163  14.515  0.00  0.00    -0.065 C 
ATOM     42  H17 FA4 d          27.638   2.063  14.548  0.00  0.00     0.033 H 
ATOM     43  H18 FA4 d          27.919   3.501  13.509  0.00  0.00     0.033 H 
BRANCH  41  44
ATOM     44  C14 FA4 d          26.210   3.653  14.810  0.00  0.00    -0.057 C 
ATOM     45  H19 FA4 d          26.163   3.965  15.864  0.00  0.00     0.033 H 
ATOM     46  H20 FA4 d          25.513   2.819  14.643  0.00  0.00     0.033 H 
BRANCH  44  47
ATOM     47  C15 FA4 d          25.772   4.831  13.939  0.00  0.00     0.009 C 
ATOM     48  H21 FA4 d          26.541   5.019  13.175  0.00  0.00     0.047 H 
ATOM     49  H22 FA4 d          25.656   5.724  14.571  0.00  0.00     0.047 H 
BRANCH  47  50
ATOM     50  C16 FA4 d          24.436   4.531  13.244  0.00  0.00     0.218 C 
ATOM     51  N17 FA4 d          23.538   5.516  13.465  0.00  0.00    -0.348 N 
ATOM     52  H23 FA4 d          23.802   6.297  14.031  0.00  0.00     0.163 HD
ATOM     53  O19 FA4 d          24.264   3.506  12.579  0.00  0.00    -0.274 OA
BRANCH  51  54
ATOM     54  C18 FA4 d          22.202   5.471  12.903  0.00  0.00     0.091 C 
ATOM     55  H24 FA4 d          22.263   5.301  11.818  0.00  0.00     0.087 H 
BRANCH  54  56
ATOM     56  C20 FA4 d          21.542   6.827  13.166  0.00  0.00    -0.038 C 
ATOM     57  H25 FA4 d          20.487   6.655  13.425  0.00  0.00     0.036 H 
ATOM     58  H26 FA4 d          21.602   7.427  12.246  0.00  0.00     0.036 H 
BRANCH  56  59
ATOM     59  C23 FA4 d          22.192   7.616  14.298  0.00  0.00    -0.061 C 
ATOM     60  H28 FA4 d          22.367   8.648  13.958  0.00  0.00     0.033 H 
ATOM     61  H29 FA4 d          23.153   7.146  14.554  0.00  0.00     0.033 H 
BRANCH  59  62
ATOM     62  C24 FA4 d          21.311   7.649  15.547  0.00  0.00    -0.043 C 
ATOM     63  H30 FA4 d          21.899   7.290  16.404  0.00  0.00     0.035 H 
ATOM     64  H31 FA4 d          20.449   6.984  15.389  0.00  0.00     0.035 H 
BRANCH  62  65
ATOM     65  C25 FA4 d          20.795   9.055  15.860  0.00  0.00     0.080 C 
ATOM     66  H32 FA4 d          21.657   9.724  15.996  0.00  0.00     0.075 H 
ATOM     67  H33 FA4 d          20.209   9.017  16.790  0.00  0.00     0.075 H 
BRANCH  65  68
ATOM     68  N26 FA4 d          19.951   9.590  14.798  0.00  0.00    -0.079 N 
ATOM     69  H34 FA4 d          20.204   9.164  13.921  0.00  0.00     0.274 HD
ATOM     70  H35 FA4 d          20.082  10.588  14.736  0.00  0.00     0.274 HD
ATOM     71  H36 FA4 d          18.986   9.390  15.003  0.00  0.00     0.274 HD
ENDBRANCH  65  68
ENDBRANCH  62  65
ENDBRANCH  59  62
ENDBRANCH  56  59
ENDBRANCH  54  56
BRANCH  54  72
ATOM     72  C21 FA4 d          21.399   4.324  13.542  0.00  0.00     0.263 C 
ATOM     73  N22 FA4 d          21.115   3.323  12.697  0.00  0.00    -0.236 N 
ATOM     74  H27 FA4 d          21.418   3.365  11.745  0.00  0.00     0.197 HD
ATOM     75  O33 FA4 d          21.072   4.354  14.725  0.00  0.00    -0.269 OA
BRANCH  73  76
ATOM     76  O32 FA4 d          20.392   2.219  13.157  0.00  0.00    -0.287 OA
ATOM     77  H44 FA4 d          20.176   2.344  14.074  0.00  0.00     0.244 HD
ENDBRANCH  73  76
ENDBRANCH  54  72
ENDBRANCH  51  54
ENDBRANCH  47  50
ENDBRANCH  44  47
ENDBRANCH  41  44
ENDBRANCH   1  41
TORSDOF 20
ENDMDL
MODEL 7
REMARK VINA RESULT:      -7.2      3.587     10.813
REMARK  20 active torsions:
REMARK  status: ('A' for Active; 'I' for Inactive)
REMARK    1  A    between atoms: C3_3  and  C7_7 
REMARK    2  A    between atoms: C4_4  and  C27_27 
REMARK    3  A    between atoms: C7_7  and  C8_8 
REMARK    4  A    between atoms: C8_8  and  C9_9 
REMARK    5  A    between atoms: C9_9  and  C10_10 
REMARK    6  A    between atoms: C10_10  and  C11_11 
REMARK    7  A    between atoms: C11_11  and  C12_12 
REMARK    8  A    between atoms: C12_12  and  C13_13 
REMARK    9  A    between atoms: C13_13  and  C14_14 
REMARK   10  A    between atoms: C14_14  and  C15_15 
REMARK   11  A    between atoms: C15_15  and  C16_16 
REMARK       I    between atoms: C16_16  and  N17_17 
REMARK   12  A    between atoms: N17_17  and  C18_18 
REMARK   13  A    between atoms: C18_18  and  C20_20 
REMARK   14  A    between atoms: C18_18  and  C21_21 
REMARK   15  A    between atoms: C20_20  and  C23_23 
REMARK       I    between atoms: C21_21  and  N22_22 
REMARK   16  A    between atoms: N22_22  and  O32_32 
REMARK   17  A    between atoms: C23_23  and  C24_24 
REMARK   18  A    between atoms: C24_24  and  C25_25 
REMARK   19  A    between atoms: C25_25  and  N26_26 
REMARK   20  A    between atoms: C27_27  and  N28_28 
REMARK       I    between atoms: N28_28  and  C29_29 
REMARK       I    between atoms: C29_29  and  N30_30 
ROOT
ATOM      1  C12 FA4 d          30.515   4.435  15.667  0.00  0.00    -0.065 C 
ATOM      2  H15 FA4 d          30.334   4.192  16.725  0.00  0.00     0.033 H 
ATOM      3  H16 FA4 d          31.438   3.941  15.331  0.00  0.00     0.033 H 
ENDROOT
BRANCH   1   4
ATOM      4  C11 FA4 d          30.700   5.949  15.541  0.00  0.00    -0.065 C 
ATOM      5  H13 FA4 d          31.596   6.147  14.933  0.00  0.00     0.033 H 
ATOM      6  H14 FA4 d          29.817   6.373  15.039  0.00  0.00     0.033 H 
BRANCH   4   7
ATOM      7  C10 FA4 d          30.867   6.630  16.902  0.00  0.00    -0.065 C 
ATOM      8  H11 FA4 d          31.313   5.907  17.601  0.00  0.00     0.033 H 
ATOM      9  H12 FA4 d          31.544   7.489  16.782  0.00  0.00     0.033 H 
BRANCH   7  10
ATOM     10  C9  FA4 d          29.547   7.130  17.494  0.00  0.00    -0.065 C 
ATOM     11  H9  FA4 d          28.726   6.836  16.823  0.00  0.00     0.033 H 
ATOM     12  H10 FA4 d          29.402   6.660  18.478  0.00  0.00     0.033 H 
BRANCH  10  13
ATOM     13  C8  FA4 d          29.515   8.649  17.668  0.00  0.00    -0.061 C 
ATOM     14  H7  FA4 d          28.946   9.088  16.835  0.00  0.00     0.033 H 
ATOM     15  H8  FA4 d          29.013   8.885  18.619  0.00  0.00     0.033 H 
BRANCH  13  16
ATOM     16  C7  FA4 d          30.922   9.269  17.686  0.00  0.00    -0.040 C 
ATOM     17  H5  FA4 d          31.167   9.562  18.718  0.00  0.00     0.040 H 
ATOM     18  H6  FA4 d          31.645   8.516  17.338  0.00  0.00     0.040 H 
BRANCH  16  19
ATOM     19  C3  FA4 d          31.023  10.485  16.800  0.00  0.00    -0.050 A 
ATOM     20  C2  FA4 d          30.080  11.554  16.962  0.00  0.00    -0.076 A 
ATOM     21  C1  FA4 d          30.150  12.718  16.137  0.00  0.00    -0.082 A 
ATOM     22  H2  FA4 d          29.308  11.478  17.718  0.00  0.00     0.084 H 
ATOM     23  C6  FA4 d          31.158  12.838  15.128  0.00  0.00    -0.082 A 
ATOM     24  H1  FA4 d          29.431  13.518  16.277  0.00  0.00     0.083 H 
ATOM     25  C5  FA4 d          32.115  11.781  14.945  0.00  0.00    -0.075 A 
ATOM     26  H4  FA4 d          31.199  13.723  14.504  0.00  0.00     0.083 H 
ATOM     27  C4  FA4 d          32.061  10.601  15.769  0.00  0.00    -0.034 A 
ATOM     28  H3  FA4 d          32.882  11.873  14.184  0.00  0.00     0.084 H 
BRANCH  27  29
ATOM     29  C27 FA4 d          33.116   9.540  15.509  0.00  0.00     0.033 C 
ATOM     30  H37 FA4 d          33.245   8.932  16.416  0.00  0.00     0.072 H 
ATOM     31  H38 FA4 d          34.067  10.033  15.260  0.00  0.00     0.072 H 
BRANCH  29  32
ATOM     32  N28 FA4 d          32.725   8.664  14.396  0.00  0.00    -0.223 N 
ATOM     33  C29 FA4 d          33.680   8.027  13.634  0.00  0.00     0.665 C 
ATOM     34  N30 FA4 d          33.389   6.868  13.055  0.00  0.00    -0.235 N 
ATOM     35  N31 FA4 d          34.903   8.552  13.471  0.00  0.00    -0.235 N 
ATOM     36  H40 FA4 d          34.097   6.385  12.483  0.00  0.00     0.174 HD
ATOM     37  H41 FA4 d          32.454   6.453  13.176  0.00  0.00     0.174 HD
ATOM     38  H42 FA4 d          35.142   9.450  13.915  0.00  0.00     0.174 HD
ATOM     39  H43 FA4 d          35.604   8.058  12.900  0.00  0.00     0.174 HD
ATOM     40  H39 FA4 d          31.726   8.525  14.184  0.00  0.00     0.178 HD
ENDBRANCH  29  32
ENDBRANCH  27  29
ENDBRANCH  16  19
ENDBRANCH  13  16
ENDBRANCH  10  13
ENDBRANCH   7  10
ENDBRANCH   4   7
ENDBRANCH   1   4
BRANCH   1  41
ATOM     41  C13 FA4 d          29.350   3.901  14.842  0.00  0.00    -0.065 C 
ATOM     42  H17 FA4 d          29.236   2.827  15.047  0.00  0.00     0.033 H 
ATOM     43  H18 FA4 d          29.578   4.049  13.776  0.00  0.00     0.033 H 
BRANCH  41  44
ATOM     44  C14 FA4 d          28.027   4.604  15.162  0.00  0.00    -0.057 C 
ATOM     45  H19 FA4 d          28.247   5.502  15.760  0.00  0.00     0.033 H 
ATOM     46  H20 FA4 d          27.401   3.916  15.751  0.00  0.00     0.033 H 
BRANCH  44  47
ATOM     47  C15 FA4 d          27.240   5.031  13.922  0.00  0.00     0.009 C 
ATOM     48  H21 FA4 d          27.921   5.069  13.059  0.00  0.00     0.047 H 
ATOM     49  H22 FA4 d          26.810   6.029  14.094  0.00  0.00     0.047 H 
BRANCH  47  50
ATOM     50  C16 FA4 d          26.106   4.039  13.626  0.00  0.00     0.218 C 
ATOM     51  N17 FA4 d          24.900   4.646  13.680  0.00  0.00    -0.348 N 
ATOM     52  H23 FA4 d          24.854   5.620  13.902  0.00  0.00     0.163 HD
ATOM     53  O19 FA4 d          26.329   2.853  13.373  0.00  0.00    -0.274 OA
BRANCH  51  54
ATOM     54  C18 FA4 d          23.669   3.922  13.423  0.00  0.00     0.091 C 
ATOM     55  H24 FA4 d          23.875   3.066  12.765  0.00  0.00     0.087 H 
BRANCH  54  56
ATOM     56  C20 FA4 d          22.706   4.882  12.720  0.00  0.00    -0.038 C 
ATOM     57  H25 FA4 d          23.240   5.363  11.888  0.00  0.00     0.036 H 
ATOM     58  H26 FA4 d          22.388   5.647  13.444  0.00  0.00     0.036 H 
BRANCH  56  59
ATOM     59  C23 FA4 d          21.460   4.202  12.162  0.00  0.00    -0.061 C 
ATOM     60  H28 FA4 d          20.955   4.894  11.472  0.00  0.00     0.033 H 
ATOM     61  H29 FA4 d          20.784   3.957  12.995  0.00  0.00     0.033 H 
BRANCH  59  62
ATOM     62  C24 FA4 d          21.803   2.916  11.410  0.00  0.00    -0.043 C 
ATOM     63  H30 FA4 d          22.789   2.564  11.744  0.00  0.00     0.035 H 
ATOM     64  H31 FA4 d          21.838   3.136  10.333  0.00  0.00     0.035 H 
BRANCH  62  65
ATOM     65  C25 FA4 d          20.778   1.807  11.652  0.00  0.00     0.080 C 
ATOM     66  H32 FA4 d          20.777   1.132  10.784  0.00  0.00     0.075 H 
ATOM     67  H33 FA4 d          19.783   2.264  11.763  0.00  0.00     0.075 H 
BRANCH  65  68
ATOM     68  N26 FA4 d          21.070   1.027  12.849  0.00  0.00    -0.079 N 
ATOM     69  H34 FA4 d          20.506   1.362  13.614  0.00  0.00     0.274 HD
ATOM     70  H35 FA4 d          22.046   1.124  13.083  0.00  0.00     0.274 HD
ATOM     71  H36 FA4 d          20.860   0.057  12.678  0.00  0.00     0.274 HD
ENDBRANCH  65  68
ENDBRANCH  62  65
ENDBRANCH  59  62
ENDBRANCH  56  59
ENDBRANCH  54  56
BRANCH  54  72
ATOM     72  C21 FA4 d          23.077   3.403  14.746  0.00  0.00     0.263 C 
ATOM     73  N22 FA4 d          22.801   4.370  15.633  0.00  0.00    -0.236 N 
ATOM     74  H27 FA4 d          22.983   5.327  15.409  0.00  0.00     0.197 HD
ATOM     75  O33 FA4 d          22.881   2.207  14.933  0.00  0.00    -0.269 OA
BRANCH  73  76
ATOM     76  O32 FA4 d          22.255   4.029  16.873  0.00  0.00    -0.287 OA
ATOM     77  H44 FA4 d          22.819   3.396  17.303  0.00  0.00     0.244 HD
ENDBRANCH  73  76
ENDBRANCH  54  72
ENDBRANCH  51  54
ENDBRANCH  47  50
ENDBRANCH  44  47
ENDBRANCH  41  44
ENDBRANCH   1  41
TORSDOF 20
ENDMDL
MODEL 8
REMARK VINA RESULT:      -7.1      3.883     11.079
REMARK  20 active torsions:
REMARK  status: ('A' for Active; 'I' for Inactive)
REMARK    1  A    between atoms: C3_3  and  C7_7 
REMARK    2  A    between atoms: C4_4  and  C27_27 
REMARK    3  A    between atoms: C7_7  and  C8_8 
REMARK    4  A    between atoms: C8_8  and  C9_9 
REMARK    5  A    between atoms: C9_9  and  C10_10 
REMARK    6  A    between atoms: C10_10  and  C11_11 
REMARK    7  A    between atoms: C11_11  and  C12_12 
REMARK    8  A    between atoms: C12_12  and  C13_13 
REMARK    9  A    between atoms: C13_13  and  C14_14 
REMARK   10  A    between atoms: C14_14  and  C15_15 
REMARK   11  A    between atoms: C15_15  and  C16_16 
REMARK       I    between atoms: C16_16  and  N17_17 
REMARK   12  A    between atoms: N17_17  and  C18_18 
REMARK   13  A    between atoms: C18_18  and  C20_20 
REMARK   14  A    between atoms: C18_18  and  C21_21 
REMARK   15  A    between atoms: C20_20  and  C23_23 
REMARK       I    between atoms: C21_21  and  N22_22 
REMARK   16  A    between atoms: N22_22  and  O32_32 
REMARK   17  A    between atoms: C23_23  and  C24_24 
REMARK   18  A    between atoms: C24_24  and  C25_25 
REMARK   19  A    between atoms: C25_25  and  N26_26 
REMARK   20  A    between atoms: C27_27  and  N28_28 
REMARK       I    between atoms: N28_28  and  C29_29 
REMARK       I    between atoms: C29_29  and  N30_30 
ROOT
ATOM      1  C12 FA4 d          28.963   3.521  15.473  0.00  0.00    -0.065 C 
ATOM      2  H15 FA4 d          28.608   4.138  16.313  0.00  0.00     0.033 H 
ATOM      3  H16 FA4 d          29.488   2.638  15.863  0.00  0.00     0.033 H 
ENDROOT
BRANCH   1   4
ATOM      4  C11 FA4 d          29.949   4.349  14.644  0.00  0.00    -0.065 C 
ATOM      5  H13 FA4 d          30.974   4.078  14.940  0.00  0.00     0.033 H 
ATOM      6  H14 FA4 d          29.802   4.113  13.580  0.00  0.00     0.033 H 
BRANCH   4   7
ATOM      7  C10 FA4 d          29.759   5.854  14.847  0.00  0.00    -0.065 C 
ATOM      8  H11 FA4 d          30.731   6.350  14.710  0.00  0.00     0.033 H 
ATOM      9  H12 FA4 d          29.050   6.221  14.091  0.00  0.00     0.033 H 
BRANCH   7  10
ATOM     10  C9  FA4 d          29.219   6.214  16.235  0.00  0.00    -0.065 C 
ATOM     11  H9  FA4 d          28.122   6.134  16.217  0.00  0.00     0.033 H 
ATOM     12  H10 FA4 d          29.627   5.500  16.966  0.00  0.00     0.033 H 
BRANCH  10  13
ATOM     13  C8  FA4 d          29.601   7.630  16.669  0.00  0.00    -0.061 C 
ATOM     14  H7  FA4 d          29.109   8.349  15.997  0.00  0.00     0.033 H 
ATOM     15  H8  FA4 d          29.248   7.790  17.699  0.00  0.00     0.033 H 
BRANCH  13  16
ATOM     16  C7  FA4 d          31.119   7.870  16.624  0.00  0.00    -0.040 C 
ATOM     17  H5  FA4 d          31.521   7.784  17.645  0.00  0.00     0.040 H 
ATOM     18  H6  FA4 d          31.580   7.104  15.983  0.00  0.00     0.040 H 
BRANCH  16  19
ATOM     19  C3  FA4 d          31.467   9.232  16.079  0.00  0.00    -0.050 A 
ATOM     20  C2  FA4 d          30.777  10.387  16.578  0.00  0.00    -0.076 A 
ATOM     21  C1  FA4 d          31.084  11.690  16.081  0.00  0.00    -0.082 A 
ATOM     22  H2  FA4 d          30.015  10.269  17.340  0.00  0.00     0.084 H 
ATOM     23  C6  FA4 d          32.082  11.869  15.070  0.00  0.00    -0.082 A 
ATOM     24  H1  FA4 d          30.555  12.552  16.472  0.00  0.00     0.083 H 
ATOM     25  C5  FA4 d          32.789  10.728  14.554  0.00  0.00    -0.075 A 
ATOM     26  H4  FA4 d          32.304  12.862  14.696  0.00  0.00     0.083 H 
ATOM     27  C4  FA4 d          32.493   9.408  15.045  0.00  0.00    -0.034 A 
ATOM     28  H3  FA4 d          33.548  10.864  13.792  0.00  0.00     0.084 H 
BRANCH  27  29
ATOM     29  C27 FA4 d          33.293   8.264  14.446  0.00  0.00     0.033 C 
ATOM     30  H37 FA4 d          32.620   7.626  13.855  0.00  0.00     0.072 H 
ATOM     31  H38 FA4 d          33.738   7.673  15.260  0.00  0.00     0.072 H 
BRANCH  29  32
ATOM     32  N28 FA4 d          34.366   8.765  13.577  0.00  0.00    -0.223 N 
ATOM     33  C29 FA4 d          34.641   8.149  12.374  0.00  0.00     0.665 C 
ATOM     34  N30 FA4 d          35.155   8.861  11.378  0.00  0.00    -0.235 N 
ATOM     35  N31 FA4 d          34.396   6.844  12.189  0.00  0.00    -0.235 N 
ATOM     36  H40 FA4 d          35.364   8.409  10.476  0.00  0.00     0.174 HD
ATOM     37  H41 FA4 d          35.344   9.865  11.507  0.00  0.00     0.174 HD
ATOM     38  H42 FA4 d          33.997   6.281  12.955  0.00  0.00     0.174 HD
ATOM     39  H43 FA4 d          34.605   6.404  11.282  0.00  0.00     0.174 HD
ATOM     40  H39 FA4 d          34.918   9.584  13.869  0.00  0.00     0.178 HD
ENDBRANCH  29  32
ENDBRANCH  27  29
ENDBRANCH  16  19
ENDBRANCH  13  16
ENDBRANCH  10  13
ENDBRANCH   7  10
ENDBRANCH   4   7
ENDBRANCH   1   4
BRANCH   1  41
ATOM     41  C13 FA4 d          27.753   3.051  14.673  0.00  0.00    -0.065 C 
ATOM     42  H17 FA4 d          27.562   1.995  14.911  0.00  0.00     0.033 H 
ATOM     43  H18 FA4 d          27.981   3.150  13.601  0.00  0.00     0.033 H 
BRANCH  41  44
ATOM     44  C14 FA4 d          26.489   3.860  14.982  0.00  0.00    -0.057 C 
ATOM     45  H19 FA4 d          26.766   4.701  15.634  0.00  0.00     0.033 H 
ATOM     46  H20 FA4 d          25.778   3.206  15.510  0.00  0.00     0.033 H 
BRANCH  44  47
ATOM     47  C15 FA4 d          25.796   4.421  13.739  0.00  0.00     0.009 C 
ATOM     48  H21 FA4 d          26.319   4.058  12.841  0.00  0.00     0.047 H 
ATOM     49  H22 FA4 d          25.838   5.520  13.769  0.00  0.00     0.047 H 
BRANCH  47  50
ATOM     50  C16 FA4 d          24.329   3.974  13.682  0.00  0.00     0.218 C 
ATOM     51  N17 FA4 d          23.499   5.036  13.584  0.00  0.00    -0.348 N 
ATOM     52  H23 FA4 d          23.886   5.958  13.568  0.00  0.00     0.163 HD
ATOM     53  O19 FA4 d          24.009   2.783  13.719  0.00  0.00    -0.274 OA
BRANCH  51  54
ATOM     54  C18 FA4 d          22.059   4.875  13.501  0.00  0.00     0.091 C 
ATOM     55  H24 FA4 d          21.752   3.996  14.087  0.00  0.00     0.087 H 
BRANCH  54  56
ATOM     56  C20 FA4 d          21.702   4.654  12.030  0.00  0.00    -0.038 C 
ATOM     57  H25 FA4 d          22.618   4.373  11.488  0.00  0.00     0.036 H 
ATOM     58  H26 FA4 d          21.310   5.597  11.622  0.00  0.00     0.036 H 
BRANCH  56  59
ATOM     59  C23 FA4 d          20.660   3.563  11.808  0.00  0.00    -0.061 C 
ATOM     60  H28 FA4 d          20.988   2.920  10.977  0.00  0.00     0.033 H 
ATOM     61  H29 FA4 d          19.700   4.035  11.548  0.00  0.00     0.033 H 
BRANCH  59  62
ATOM     62  C24 FA4 d          20.465   2.700  13.054  0.00  0.00    -0.043 C 
ATOM     63  H30 FA4 d          19.431   2.820  13.408  0.00  0.00     0.035 H 
ATOM     64  H31 FA4 d          21.161   3.044  13.834  0.00  0.00     0.035 H 
BRANCH  62  65
ATOM     65  C25 FA4 d          20.724   1.217  12.784  0.00  0.00     0.080 C 
ATOM     66  H32 FA4 d          20.497   1.006  11.729  0.00  0.00     0.075 H 
ATOM     67  H33 FA4 d          20.060   0.621  13.428  0.00  0.00     0.075 H 
BRANCH  65  68
ATOM     68  N26 FA4 d          22.104   0.833  13.051  0.00  0.00    -0.079 N 
ATOM     69  H34 FA4 d          22.240   0.735  14.045  0.00  0.00     0.274 HD
ATOM     70  H35 FA4 d          22.725   1.544  12.696  0.00  0.00     0.274 HD
ATOM     71  H36 FA4 d          22.303  -0.044  12.597  0.00  0.00     0.274 HD
ENDBRANCH  65  68
ENDBRANCH  62  65
ENDBRANCH  59  62
ENDBRANCH  56  59
ENDBRANCH  54  56
BRANCH  54  72
ATOM     72  C21 FA4 d          21.355   6.121  14.067  0.00  0.00     0.263 C 
ATOM     73  N22 FA4 d          22.172   6.950  14.733  0.00  0.00    -0.236 N 
ATOM     74  H27 FA4 d          23.143   6.733  14.829  0.00  0.00     0.197 HD
ATOM     75  O33 FA4 d          20.155   6.311  13.896  0.00  0.00    -0.269 OA
BRANCH  73  76
ATOM     76  O32 FA4 d          21.654   8.121  15.293  0.00  0.00    -0.287 OA
ATOM     77  H44 FA4 d          20.734   8.199  15.068  0.00  0.00     0.244 HD
ENDBRANCH  73  76
ENDBRANCH  54  72
ENDBRANCH  51  54
ENDBRANCH  47  50
ENDBRANCH  44  47
ENDBRANCH  41  44
ENDBRANCH   1  41
TORSDOF 20
ENDMDL
MODEL 9
REMARK VINA RESULT:      -7.0      3.415     10.794
REMARK  20 active torsions:
REMARK  status: ('A' for Active; 'I' for Inactive)
REMARK    1  A    between atoms: C3_3  and  C7_7 
REMARK    2  A    between atoms: C4_4  and  C27_27 
REMARK    3  A    between atoms: C7_7  and  C8_8 
REMARK    4  A    between atoms: C8_8  and  C9_9 
REMARK    5  A    between atoms: C9_9  and  C10_10 
REMARK    6  A    between atoms: C10_10  and  C11_11 
REMARK    7  A    between atoms: C11_11  and  C12_12 
REMARK    8  A    between atoms: C12_12  and  C13_13 
REMARK    9  A    between atoms: C13_13  and  C14_14 
REMARK   10  A    between atoms: C14_14  and  C15_15 
REMARK   11  A    between atoms: C15_15  and  C16_16 
REMARK       I    between atoms: C16_16  and  N17_17 
REMARK   12  A    between atoms: N17_17  and  C18_18 
REMARK   13  A    between atoms: C18_18  and  C20_20 
REMARK   14  A    between atoms: C18_18  and  C21_21 
REMARK   15  A    between atoms: C20_20  and  C23_23 
REMARK       I    between atoms: C21_21  and  N22_22 
REMARK   16  A    between atoms: N22_22  and  O32_32 
REMARK   17  A    between atoms: C23_23  and  C24_24 
REMARK   18  A    between atoms: C24_24  and  C25_25 
REMARK   19  A    between atoms: C25_25  and  N26_26 
REMARK   20  A    between atoms: C27_27  and  N28_28 
REMARK       I    between atoms: N28_28  and  C29_29 
REMARK       I    between atoms: C29_29  and  N30_30 
ROOT
ATOM      1  C12 FA4 d          30.729   4.402  15.684  0.00  0.00    -0.065 C 
ATOM      2  H15 FA4 d          30.281   4.446  16.688  0.00  0.00     0.033 H 
ATOM      3  H16 FA4 d          31.413   3.543  15.626  0.00  0.00     0.033 H 
ENDROOT
BRANCH   1   4
ATOM      4  C11 FA4 d          31.535   5.683  15.454  0.00  0.00    -0.065 C 
ATOM      5  H13 FA4 d          32.594   5.415  15.319  0.00  0.00     0.033 H 
ATOM      6  H14 FA4 d          31.163   6.177  14.544  0.00  0.00     0.033 H 
BRANCH   4   7
ATOM      7  C10 FA4 d          31.420   6.660  16.627  0.00  0.00    -0.065 C 
ATOM      8  H11 FA4 d          31.345   6.079  17.559  0.00  0.00     0.033 H 
ATOM      9  H12 FA4 d          32.327   7.281  16.655  0.00  0.00     0.033 H 
BRANCH   7  10
ATOM     10  C9  FA4 d          30.201   7.582  16.528  0.00  0.00    -0.065 C 
ATOM     11  H9  FA4 d          29.710   7.413  15.559  0.00  0.00     0.033 H 
ATOM     12  H10 FA4 d          29.504   7.333  17.342  0.00  0.00     0.033 H 
BRANCH  10  13
ATOM     13  C8  FA4 d          30.570   9.062  16.638  0.00  0.00    -0.061 C 
ATOM     14  H7  FA4 d          30.196   9.586  15.746  0.00  0.00     0.033 H 
ATOM     15  H8  FA4 d          30.090   9.480  17.536  0.00  0.00     0.033 H 
BRANCH  13  16
ATOM     16  C7  FA4 d          32.088   9.285  16.741  0.00  0.00    -0.040 C 
ATOM     17  H5  FA4 d          32.338   9.549  17.779  0.00  0.00     0.040 H 
ATOM     18  H6  FA4 d          32.602   8.351  16.467  0.00  0.00     0.040 H 
BRANCH  16  19
ATOM     19  C3  FA4 d          32.568  10.388  15.831  0.00  0.00    -0.050 A 
ATOM     20  C2  FA4 d          32.154  11.738  16.084  0.00  0.00    -0.076 A 
ATOM     21  C1  FA4 d          32.591  12.803  15.240  0.00  0.00    -0.082 A 
ATOM     22  H2  FA4 d          31.503  11.952  16.924  0.00  0.00     0.084 H 
ATOM     23  C6  FA4 d          33.446  12.545  14.121  0.00  0.00    -0.082 A 
ATOM     24  H1  FA4 d          32.272  13.818  15.449  0.00  0.00     0.083 H 
ATOM     25  C5  FA4 d          33.876  11.200  13.846  0.00  0.00    -0.075 A 
ATOM     26  H4  FA4 d          33.769  13.360  13.483  0.00  0.00     0.083 H 
ATOM     27  C4  FA4 d          33.446  10.114  14.688  0.00  0.00    -0.034 A 
ATOM     28  H3  FA4 d          34.527  11.004  13.002  0.00  0.00     0.084 H 
BRANCH  27  29
ATOM     29  C27 FA4 d          33.955   8.730  14.325  0.00  0.00     0.033 C 
ATOM     30  H37 FA4 d          33.127   8.143  13.901  0.00  0.00     0.072 H 
ATOM     31  H38 FA4 d          34.326   8.235  15.234  0.00  0.00     0.072 H 
BRANCH  29  32
ATOM     32  N28 FA4 d          35.043   8.805  13.342  0.00  0.00    -0.223 N 
ATOM     33  C29 FA4 d          35.008   8.040  12.195  0.00  0.00     0.665 C 
ATOM     34  N30 FA4 d          35.618   8.478  11.099  0.00  0.00    -0.235 N 
ATOM     35  N31 FA4 d          34.365   6.864  12.163  0.00  0.00    -0.235 N 
ATOM     36  H40 FA4 d          35.596   7.913  10.238  0.00  0.00     0.174 HD
ATOM     37  H41 FA4 d          36.111   9.381  11.110  0.00  0.00     0.174 HD
ATOM     38  H42 FA4 d          33.889   6.515  13.007  0.00  0.00     0.174 HD
ATOM     39  H43 FA4 d          34.348   6.310  11.295  0.00  0.00     0.174 HD
ATOM     40  H39 FA4 d          35.840   9.435  13.511  0.00  0.00     0.178 HD
ENDBRANCH  29  32
ENDBRANCH  27  29
ENDBRANCH  16  19
ENDBRANCH  13  16
ENDBRANCH  10  13
ENDBRANCH   7  10
ENDBRANCH   4   7
ENDBRANCH   1   4
BRANCH   1  41
ATOM     41  C13 FA4 d          29.613   4.203  14.664  0.00  0.00    -0.065 C 
ATOM     42  H17 FA4 d          29.518   3.129  14.451  0.00  0.00     0.033 H 
ATOM     43  H18 FA4 d          29.882   4.738  13.741  0.00  0.00     0.033 H 
BRANCH  41  44
ATOM     44  C14 FA4 d          28.260   4.727  15.157  0.00  0.00    -0.057 C 
ATOM     45  H19 FA4 d          28.443   5.456  15.961  0.00  0.00     0.033 H 
ATOM     46  H20 FA4 d          27.684   3.880  15.556  0.00  0.00     0.033 H 
BRANCH  44  47
ATOM     47  C15 FA4 d          27.429   5.407  14.069  0.00  0.00     0.009 C 
ATOM     48  H21 FA4 d          28.094   5.720  13.250  0.00  0.00     0.047 H 
ATOM     49  H22 FA4 d          26.931   6.291  14.495  0.00  0.00     0.047 H 
BRANCH  47  50
ATOM     50  C16 FA4 d          26.365   4.450  13.514  0.00  0.00     0.218 C 
ATOM     51  N17 FA4 d          25.120   4.936  13.712  0.00  0.00    -0.348 N 
ATOM     52  H23 FA4 d          25.008   5.813  14.178  0.00  0.00     0.163 HD
ATOM     53  O19 FA4 d          26.669   3.388  12.964  0.00  0.00    -0.274 OA
BRANCH  51  54
ATOM     54  C18 FA4 d          23.941   4.219  13.264  0.00  0.00     0.091 C 
ATOM     55  H24 FA4 d          24.215   3.525  12.456  0.00  0.00     0.087 H 
BRANCH  54  56
ATOM     56  C20 FA4 d          22.946   5.252  12.729  0.00  0.00    -0.038 C 
ATOM     57  H25 FA4 d          22.382   4.795  11.903  0.00  0.00     0.036 H 
ATOM     58  H26 FA4 d          23.512   6.117  12.353  0.00  0.00     0.036 H 
BRANCH  56  59
ATOM     59  C23 FA4 d          21.952   5.745  13.775  0.00  0.00    -0.061 C 
ATOM     60  H28 FA4 d          22.221   5.317  14.752  0.00  0.00     0.033 H 
ATOM     61  H29 FA4 d          20.943   5.408  13.494  0.00  0.00     0.033 H 
BRANCH  59  62
ATOM     62  C24 FA4 d          21.952   7.269  13.886  0.00  0.00    -0.043 C 
ATOM     63  H30 FA4 d          21.322   7.681  13.084  0.00  0.00     0.035 H 
ATOM     64  H31 FA4 d          22.983   7.632  13.764  0.00  0.00     0.035 H 
BRANCH  62  65
ATOM     65  C25 FA4 d          21.415   7.757  15.232  0.00  0.00     0.080 C 
ATOM     66  H32 FA4 d          20.390   8.129  15.089  0.00  0.00     0.075 H 
ATOM     67  H33 FA4 d          22.056   8.576  15.591  0.00  0.00     0.075 H 
BRANCH  65  68
ATOM     68  N26 FA4 d          21.394   6.704  16.240  0.00  0.00    -0.079 N 
ATOM     69  H34 FA4 d          22.242   6.165  16.181  0.00  0.00     0.274 HD
ATOM     70  H35 FA4 d          20.601   6.102  16.080  0.00  0.00     0.274 HD
ATOM     71  H36 FA4 d          21.322   7.117  17.156  0.00  0.00     0.274 HD
ENDBRANCH  65  68
ENDBRANCH  62  65
ENDBRANCH  59  62
ENDBRANCH  56  59
ENDBRANCH  54  56
BRANCH  54  72
ATOM     72  C21 FA4 d          23.339   3.413  14.429  0.00  0.00     0.263 C 
ATOM     73  N22 FA4 d          23.831   3.748  15.631  0.00  0.00    -0.236 N 
ATOM     74  H27 FA4 d          24.526   4.462  15.711  0.00  0.00     0.197 HD
ATOM     75  O33 FA4 d          22.483   2.555  14.239  0.00  0.00    -0.269 OA
BRANCH  73  76
ATOM     76  O32 FA4 d          23.362   3.090  16.772  0.00  0.00    -0.287 OA
ATOM     77  H44 FA4 d          24.101   2.773  17.278  0.00  0.00     0.244 HD
ENDBRANCH  73  76
ENDBRANCH  54  72
ENDBRANCH  51  54
ENDBRANCH  47  50
ENDBRANCH  44  47
ENDBRANCH  41  44
ENDBRANCH   1  41
TORSDOF 20
ENDMDL
MODEL 10
REMARK VINA RESULT:      -6.9      2.257      3.788
REMARK  20 active torsions:
REMARK  status: ('A' for Active; 'I' for Inactive)
REMARK    1  A    between atoms: C3_3  and  C7_7 
REMARK    2  A    between atoms: C4_4  and  C27_27 
REMARK    3  A    between atoms: C7_7  and  C8_8 
REMARK    4  A    between atoms: C8_8  and  C9_9 
REMARK    5  A    between atoms: C9_9  and  C10_10 
REMARK    6  A    between atoms: C10_10  and  C11_11 
REMARK    7  A    between atoms: C11_11  and  C12_12 
REMARK    8  A    between atoms: C12_12  and  C13_13 
REMARK    9  A    between atoms: C13_13  and  C14_14 
REMARK   10  A    between atoms: C14_14  and  C15_15 
REMARK   11  A    between atoms: C15_15  and  C16_16 
REMARK       I    between atoms: C16_16  and  N17_17 
REMARK   12  A    between atoms: N17_17  and  C18_18 
REMARK   13  A    between atoms: C18_18  and  C20_20 
REMARK   14  A    between atoms: C18_18  and  C21_21 
REMARK   15  A    between atoms: C20_20  and  C23_23 
REMARK       I    between atoms: C21_21  and  N22_22 
REMARK   16  A    between atoms: N22_22  and  O32_32 
REMARK   17  A    between atoms: C23_23  and  C24_24 
REMARK   18  A    between atoms: C24_24  and  C25_25 
REMARK   19  A    between atoms: C25_25  and  N26_26 
REMARK   20  A    between atoms: C27_27  and  N28_28 
REMARK       I    between atoms: N28_28  and  C29_29 
REMARK       I    between atoms: C29_29  and  N30_30 
ROOT
ATOM      1  C12 FA4 d          26.643   2.735  14.104  0.00  0.00    -0.065 C 
ATOM      2  H15 FA4 d          27.196   2.801  13.155  0.00  0.00     0.033 H 
ATOM      3  H16 FA4 d          25.930   1.899  14.055  0.00  0.00     0.033 H 
ENDROOT
BRANCH   1   4
ATOM      4  C11 FA4 d          25.858   4.034  14.301  0.00  0.00    -0.065 C 
ATOM      5  H13 FA4 d          25.021   3.841  14.990  0.00  0.00     0.033 H 
ATOM      6  H14 FA4 d          26.527   4.789  14.740  0.00  0.00     0.033 H 
BRANCH   4   7
ATOM      7  C10 FA4 d          25.296   4.579  12.986  0.00  0.00    -0.065 C 
ATOM      8  H11 FA4 d          25.985   5.347  12.604  0.00  0.00     0.033 H 
ATOM      9  H12 FA4 d          25.233   3.752  12.264  0.00  0.00     0.033 H 
BRANCH   7  10
ATOM     10  C9  FA4 d          23.905   5.203  13.134  0.00  0.00    -0.065 C 
ATOM     11  H9  FA4 d          23.552   5.035  14.162  0.00  0.00     0.033 H 
ATOM     12  H10 FA4 d          23.983   6.284  12.945  0.00  0.00     0.033 H 
BRANCH  10  13
ATOM     13  C8  FA4 d          22.884   4.609  12.163  0.00  0.00    -0.061 C 
ATOM     14  H7  FA4 d          23.213   4.819  11.134  0.00  0.00     0.033 H 
ATOM     15  H8  FA4 d          22.840   3.521  12.319  0.00  0.00     0.033 H 
BRANCH  13  16
ATOM     16  C7  FA4 d          21.475   5.193  12.360  0.00  0.00    -0.040 C 
ATOM     17  H5  FA4 d          21.314   5.987  11.615  0.00  0.00     0.040 H 
ATOM     18  H6  FA4 d          20.736   4.393  12.208  0.00  0.00     0.040 H 
BRANCH  16  19
ATOM     19  C3  FA4 d          21.285   5.775  13.738  0.00  0.00    -0.050 A 
ATOM     20  C2  FA4 d          21.559   7.165  13.959  0.00  0.00    -0.076 A 
ATOM     21  C1  FA4 d          21.389   7.745  15.252  0.00  0.00    -0.082 A 
ATOM     22  H2  FA4 d          21.900   7.783  13.135  0.00  0.00     0.084 H 
ATOM     23  C6  FA4 d          20.946   6.948  16.356  0.00  0.00    -0.082 A 
ATOM     24  H1  FA4 d          21.598   8.799  15.400  0.00  0.00     0.083 H 
ATOM     25  C5  FA4 d          20.663   5.552  16.162  0.00  0.00    -0.075 A 
ATOM     26  H4  FA4 d          20.824   7.396  17.336  0.00  0.00     0.083 H 
ATOM     27  C4  FA4 d          20.828   4.952  14.864  0.00  0.00    -0.034 A 
ATOM     28  H3  FA4 d          20.323   4.949  16.996  0.00  0.00     0.084 H 
BRANCH  27  29
ATOM     29  C27 FA4 d          20.499   3.473  14.750  0.00  0.00     0.033 C 
ATOM     30  H37 FA4 d          20.041   3.282  13.770  0.00  0.00     0.072 H 
ATOM     31  H38 FA4 d          19.791   3.201  15.546  0.00  0.00     0.072 H 
BRANCH  29  32
ATOM     32  N28 FA4 d          21.708   2.649  14.884  0.00  0.00    -0.223 N 
ATOM     33  C29 FA4 d          22.105   1.813  13.861  0.00  0.00     0.665 C 
ATOM     34  N30 FA4 d          23.393   1.527  13.714  0.00  0.00    -0.235 N 
ATOM     35  N31 FA4 d          21.214   1.286  13.009  0.00  0.00    -0.235 N 
ATOM     36  H40 FA4 d          23.698   0.903  12.953  0.00  0.00     0.174 HD
ATOM     37  H41 FA4 d          24.087   1.928  14.360  0.00  0.00     0.174 HD
ATOM     38  H42 FA4 d          20.212   1.502  13.113  0.00  0.00     0.174 HD
ATOM     39  H43 FA4 d          21.532   0.667  12.250  0.00  0.00     0.174 HD
ATOM     40  H39 FA4 d          22.265   2.697  15.749  0.00  0.00     0.178 HD
ENDBRANCH  29  32
ENDBRANCH  27  29
ENDBRANCH  16  19
ENDBRANCH  13  16
ENDBRANCH  10  13
ENDBRANCH   7  10
ENDBRANCH   4   7
ENDBRANCH   1   4
BRANCH   1  41
ATOM     41  C13 FA4 d          27.638   2.459  15.225  0.00  0.00    -0.065 C 
ATOM     42  H17 FA4 d          28.270   1.607  14.933  0.00  0.00     0.033 H 
ATOM     43  H18 FA4 d          27.079   2.205  16.137  0.00  0.00     0.033 H 
BRANCH  41  44
ATOM     44  C14 FA4 d          28.543   3.660  15.523  0.00  0.00    -0.057 C 
ATOM     45  H19 FA4 d          29.002   3.512  16.512  0.00  0.00     0.033 H 
ATOM     46  H20 FA4 d          27.921   4.567  15.539  0.00  0.00     0.033 H 
BRANCH  44  47
ATOM     47  C15 FA4 d          29.660   3.859  14.497  0.00  0.00     0.009 C 
ATOM     48  H21 FA4 d          29.234   4.294  13.581  0.00  0.00     0.047 H 
ATOM     49  H22 FA4 d          30.113   2.884  14.265  0.00  0.00     0.047 H 
BRANCH  47  50
ATOM     50  C16 FA4 d          30.743   4.800  15.044  0.00  0.00     0.218 C 
ATOM     51  N17 FA4 d          30.425   6.094  14.820  0.00  0.00    -0.348 N 
ATOM     52  H23 FA4 d          29.574   6.310  14.341  0.00  0.00     0.163 HD
ATOM     53  O19 FA4 d          31.752   4.371  15.610  0.00  0.00    -0.274 OA
BRANCH  51  54
ATOM     54  C18 FA4 d          31.285   7.177  15.255  0.00  0.00     0.091 C 
ATOM     55  H24 FA4 d          31.891   6.847  16.110  0.00  0.00     0.087 H 
BRANCH  54  56
ATOM     56  C20 FA4 d          30.386   8.337  15.688  0.00  0.00    -0.038 C 
ATOM     57  H25 FA4 d          29.338   8.006  15.627  0.00  0.00     0.036 H 
ATOM     58  H26 FA4 d          30.546   9.178  14.997  0.00  0.00     0.036 H 
BRANCH  56  59
ATOM     59  C23 FA4 d          30.653   8.824  17.108  0.00  0.00    -0.061 C 
ATOM     60  H28 FA4 d          30.944   7.964  17.730  0.00  0.00     0.033 H 
ATOM     61  H29 FA4 d          29.732   9.272  17.510  0.00  0.00     0.033 H 
BRANCH  59  62
ATOM     62  C24 FA4 d          31.770   9.866  17.151  0.00  0.00    -0.043 C 
ATOM     63  H30 FA4 d          32.574   9.550  16.471  0.00  0.00     0.035 H 
ATOM     64  H31 FA4 d          32.161   9.923  18.178  0.00  0.00     0.035 H 
BRANCH  62  65
ATOM     65  C25 FA4 d          31.289  11.256  16.731  0.00  0.00     0.080 C 
ATOM     66  H32 FA4 d          31.360  11.338  15.637  0.00  0.00     0.075 H 
ATOM     67  H33 FA4 d          31.939  12.011  17.198  0.00  0.00     0.075 H 
BRANCH  65  68
ATOM     68  N26 FA4 d          29.911  11.515  17.130  0.00  0.00    -0.079 N 
ATOM     69  H34 FA4 d          29.881  12.321  17.733  0.00  0.00     0.274 HD
ATOM     70  H35 FA4 d          29.548  10.714  17.623  0.00  0.00     0.274 HD
ATOM     71  H36 FA4 d          29.351  11.688  16.311  0.00  0.00     0.274 HD
ENDBRANCH  65  68
ENDBRANCH  62  65
ENDBRANCH  59  62
ENDBRANCH  56  59
ENDBRANCH  54  56
BRANCH  54  72
ATOM     72  C21 FA4 d          32.225   7.596  14.110  0.00  0.00     0.263 C 
ATOM     73  N22 FA4 d          33.005   6.603  13.658  0.00  0.00    -0.236 N 
ATOM     74  H27 FA4 d          32.945   5.691  14.062  0.00  0.00     0.197 HD
ATOM     75  O33 FA4 d          32.228   8.741  13.671  0.00  0.00    -0.269 OA
BRANCH  73  76
ATOM     76  O32 FA4 d          33.902   6.855  12.616  0.00  0.00    -0.287 OA
ATOM     77  H44 FA4 d          34.151   7.772  12.628  0.00  0.00     0.244 HD
ENDBRANCH  73  76
ENDBRANCH  54  72
ENDBRANCH  51  54
ENDBRANCH  47  50
ENDBRANCH  44  47
ENDBRANCH  41  44
ENDBRANCH   1  41
TORSDOF 20
ENDMDL
