MODEL 1
REMARK VINA RESULT:     -10.5      0.000      0.000
REMARK  8 active torsions:
REMARK  status: ('A' for Active; 'I' for Inactive)
REMARK    1  A    between atoms: C4_4  and  N17_5 
REMARK    2  A    between atoms: C10_8  and  C18_9 
REMARK    3  A    between atoms: C18_9  and  C19_10 
REMARK    4  A    between atoms: C19_10  and  N20_11 
REMARK    5  A    between atoms: N20_11  and  C21_12 
REMARK    6  A    between atoms: C21_12  and  C22_13 
REMARK    7  A    between atoms: C12_20  and  N14_21 
REMARK    8  A    between atoms: N14_21  and  C15_22 
ROOT
ATOM      1  C2  AFQ d          18.056  17.087  23.103  0.00  0.00     0.272 C 
ATOM      2  O16 AFQ d          19.175  17.391  23.474  0.00  0.00    -0.267 OA
ATOM      3  N3  AFQ d          16.998  16.907  23.938  0.00  0.00    -0.156 N 
ATOM      4  C4  AFQ d          15.815  16.485  23.400  0.00  0.00     0.679 C 
ATOM      5  N5  AFQ d          15.609  16.386  22.135  0.00  0.00    -0.190 N 
ATOM      6  C6  AFQ d          16.544  16.629  21.170  0.00  0.00     0.073 A 
ATOM      7  C10 AFQ d          16.214  16.513  19.799  0.00  0.00     0.004 A 
ATOM      8  C9  AFQ d          17.261  16.808  18.924  0.00  0.00     0.111 A 
ATOM      9  N11 AFQ d          17.361  16.900  17.576  0.00  0.00    -0.062 NA
ATOM     10  C12 AFQ d          18.549  17.195  17.213  0.00  0.00     0.701 A 
ATOM     11  N13 AFQ d          19.348  17.383  18.282  0.00  0.00    -0.188 N 
ATOM     12  C8  AFQ d          18.503  17.155  19.385  0.00  0.00     0.080 A 
ATOM     13  C7  AFQ d          18.877  17.260  20.723  0.00  0.00    -0.037 A 
ATOM     14  C1  AFQ d          17.836  16.958  21.616  0.00  0.00     0.062 A 
ATOM     15  H1  AFQ d          17.083  17.079  24.919  0.00  0.00     0.187 HD
ATOM     16  H4  AFQ d          14.668  16.103  21.826  0.00  0.00     0.184 HD
ATOM     17  H26 AFQ d          20.346  17.634  18.289  0.00  0.00     0.184 HD
ATOM     18  H27 AFQ d          19.872  17.546  21.043  0.00  0.00     0.088 H 
ENDROOT
BRANCH   7  19
ATOM     19  C18 AFQ d          14.932  15.931  19.233  0.00  0.00    -0.014 C 
ATOM     20  H5  AFQ d          14.689  16.477  18.310  0.00  0.00     0.042 H 
ATOM     21  H6  AFQ d          14.132  16.088  19.972  0.00  0.00     0.042 H 
BRANCH  19  22
ATOM     22  C19 AFQ d          14.986  14.401  18.894  0.00  0.00     0.085 C 
ATOM     23  H7  AFQ d          14.926  13.799  19.812  0.00  0.00     0.076 H 
ATOM     24  H8  AFQ d          15.914  14.157  18.355  0.00  0.00     0.076 H 
BRANCH  22  25
ATOM     25  N20 AFQ d          13.798  14.154  18.028  0.00  0.00    -0.074 N 
ATOM     26  H9  AFQ d          13.031  13.898  18.629  0.00  0.00     0.277 HD
ATOM     27  H10 AFQ d          14.020  13.383  17.418  0.00  0.00     0.277 HD
BRANCH  25  28
ATOM     28  C21 AFQ d          13.344  15.293  17.172  0.00  0.00     0.085 C 
ATOM     29  H11 AFQ d          13.689  15.142  16.138  0.00  0.00     0.076 H 
ATOM     30  H12 AFQ d          13.755  16.237  17.560  0.00  0.00     0.076 H 
BRANCH  28  31
ATOM     31  C22 AFQ d          11.787  15.343  17.206  0.00  0.00    -0.031 C 
ATOM     32  C26 AFQ d          11.225  15.656  18.604  0.00  0.00    -0.060 C 
ATOM     33  C25 AFQ d           9.823  14.995  18.610  0.00  0.00    -0.065 C 
ATOM     34  H14 AFQ d          11.143  16.743  18.756  0.00  0.00     0.033 H 
ATOM     35  H15 AFQ d          11.864  15.222  19.387  0.00  0.00     0.033 H 
ATOM     36  C24 AFQ d          10.000  13.686  17.769  0.00  0.00    -0.065 C 
ATOM     37  H16 AFQ d           9.079  15.658  18.146  0.00  0.00     0.033 H 
ATOM     38  H17 AFQ d           9.512  14.757  19.638  0.00  0.00     0.033 H 
ATOM     39  C23 AFQ d          11.183  13.970  16.824  0.00  0.00    -0.060 C 
ATOM     40  H18 AFQ d           9.088  13.472  17.192  0.00  0.00     0.033 H 
ATOM     41  H19 AFQ d          10.228  12.833  18.426  0.00  0.00     0.033 H 
ATOM     42  H20 AFQ d          11.944  13.185  16.934  0.00  0.00     0.033 H 
ATOM     43  H21 AFQ d          10.829  13.995  15.783  0.00  0.00     0.033 H 
ATOM     44  H13 AFQ d          11.449  16.111  16.495  0.00  0.00     0.042 H 
ENDBRANCH  28  31
ENDBRANCH  25  28
ENDBRANCH  22  25
ENDBRANCH  19  22
ENDBRANCH   7  19
BRANCH   4  45
ATOM     45  N17 AFQ d          14.802  16.230  24.268  0.00  0.00    -0.234 N 
ATOM     46  H2  AFQ d          13.835  16.489  24.023  0.00  0.00     0.174 HD
ATOM     47  H3  AFQ d          15.000  15.780  25.173  0.00  0.00     0.174 HD
ENDBRANCH   4  45
BRANCH  10  48
ATOM     48  N14 AFQ d          19.127  17.349  16.020  0.00  0.00    -0.229 N 
ATOM     49  H22 AFQ d          20.097  17.015  15.928  0.00  0.00     0.177 HD
BRANCH  48  50
ATOM     50  C15 AFQ d          18.525  17.939  14.841  0.00  0.00    -0.005 C 
ATOM     51  H23 AFQ d          17.755  18.663  15.146  0.00  0.00     0.057 H 
ATOM     52  H24 AFQ d          18.064  17.148  14.231  0.00  0.00     0.057 H 
ATOM     53  H25 AFQ d          19.299  18.452  14.253  0.00  0.00     0.057 H 
ENDBRANCH  48  50
ENDBRANCH  10  48
TORSDOF 8
ENDMDL
MODEL 2
REMARK VINA RESULT:      -8.2      2.559      5.199
REMARK  8 active torsions:
REMARK  status: ('A' for Active; 'I' for Inactive)
REMARK    1  A    between atoms: C4_4  and  N17_5 
REMARK    2  A    between atoms: C10_8  and  C18_9 
REMARK    3  A    between atoms: C18_9  and  C19_10 
REMARK    4  A    between atoms: C19_10  and  N20_11 
REMARK    5  A    between atoms: N20_11  and  C21_12 
REMARK    6  A    between atoms: C21_12  and  C22_13 
REMARK    7  A    between atoms: C12_20  and  N14_21 
REMARK    8  A    between atoms: N14_21  and  C15_22 
ROOT
ATOM      1  C2  AFQ d          17.936  17.698  14.667  0.00  0.00     0.272 C 
ATOM      2  O16 AFQ d          19.047  18.100  14.373  0.00  0.00    -0.267 OA
ATOM      3  N3  AFQ d          16.944  17.469  13.765  0.00  0.00    -0.156 N 
ATOM      4  C4  AFQ d          15.716  17.100  14.236  0.00  0.00     0.679 C 
ATOM      5  N5  AFQ d          15.486  16.819  15.469  0.00  0.00    -0.190 N 
ATOM      6  C6  AFQ d          16.407  16.906  16.474  0.00  0.00     0.073 A 
ATOM      7  C10 AFQ d          16.062  16.555  17.800  0.00  0.00     0.004 A 
ATOM      8  C9  AFQ d          17.104  16.674  18.721  0.00  0.00     0.111 A 
ATOM      9  N11 AFQ d          17.236  16.377  20.036  0.00  0.00    -0.062 NA
ATOM     10  C12 AFQ d          18.400  16.673  20.470  0.00  0.00     0.701 A 
ATOM     11  N13 AFQ d          19.179  17.146  19.478  0.00  0.00    -0.188 N 
ATOM     12  C8  AFQ d          18.344  17.121  18.345  0.00  0.00     0.080 A 
ATOM     13  C7  AFQ d          18.719  17.498  17.057  0.00  0.00    -0.037 A 
ATOM     14  C1  AFQ d          17.678  17.391  16.121  0.00  0.00     0.062 A 
ATOM     15  H1  AFQ d          17.109  17.568  12.784  0.00  0.00     0.187 HD
ATOM     16  H4  AFQ d          14.537  16.506  15.718  0.00  0.00     0.184 HD
ATOM     17  H26 AFQ d          20.159  17.455  19.536  0.00  0.00     0.184 HD
ATOM     18  H27 AFQ d          19.716  17.840  16.803  0.00  0.00     0.088 H 
ENDROOT
BRANCH   7  19
ATOM     19  C18 AFQ d          14.665  16.261  18.315  0.00  0.00    -0.014 C 
ATOM     20  H5  AFQ d          13.946  16.775  17.661  0.00  0.00     0.042 H 
ATOM     21  H6  AFQ d          14.586  16.664  19.335  0.00  0.00     0.042 H 
BRANCH  19  22
ATOM     22  C19 AFQ d          14.277  14.741  18.362  0.00  0.00     0.085 C 
ATOM     23  H7  AFQ d          13.822  14.488  19.330  0.00  0.00     0.076 H 
ATOM     24  H8  AFQ d          15.164  14.111  18.198  0.00  0.00     0.076 H 
BRANCH  22  25
ATOM     25  N20 AFQ d          13.294  14.558  17.257  0.00  0.00    -0.074 N 
ATOM     26  H9  AFQ d          12.641  13.847  17.544  0.00  0.00     0.277 HD
ATOM     27  H10 AFQ d          13.802  14.241  16.446  0.00  0.00     0.277 HD
BRANCH  25  28
ATOM     28  C21 AFQ d          12.504  15.763  16.855  0.00  0.00     0.085 C 
ATOM     29  H11 AFQ d          12.628  15.946  15.777  0.00  0.00     0.076 H 
ATOM     30  H12 AFQ d          12.855  16.642  17.418  0.00  0.00     0.076 H 
BRANCH  28  31
ATOM     31  C22 AFQ d          11.003  15.496  17.176  0.00  0.00    -0.031 C 
ATOM     32  C26 AFQ d          10.651  15.741  18.654  0.00  0.00    -0.060 C 
ATOM     33  C25 AFQ d           9.441  14.809  18.919  0.00  0.00    -0.065 C 
ATOM     34  H14 AFQ d          10.375  16.793  18.819  0.00  0.00     0.033 H 
ATOM     35  H15 AFQ d          11.496  15.476  19.305  0.00  0.00     0.033 H 
ATOM     36  C24 AFQ d           9.731  13.533  18.058  0.00  0.00    -0.065 C 
ATOM     37  H16 AFQ d           8.504  15.288  18.600  0.00  0.00     0.033 H 
ATOM     38  H17 AFQ d           9.376  14.551  19.986  0.00  0.00     0.033 H 
ATOM     39  C23 AFQ d          10.638  14.016  16.911  0.00  0.00    -0.060 C 
ATOM     40  H18 AFQ d           8.794  13.116  17.659  0.00  0.00     0.033 H 
ATOM     41  H19 AFQ d          10.244  12.769  18.661  0.00  0.00     0.033 H 
ATOM     42  H20 AFQ d          11.553  13.407  16.879  0.00  0.00     0.033 H 
ATOM     43  H21 AFQ d          10.105  13.929  15.953  0.00  0.00     0.033 H 
ATOM     44  H13 AFQ d          10.391  16.152  16.540  0.00  0.00     0.042 H 
ENDBRANCH  28  31
ENDBRANCH  25  28
ENDBRANCH  22  25
ENDBRANCH  19  22
ENDBRANCH   7  19
BRANCH   4  45
ATOM     45  N17 AFQ d          14.723  16.962  13.318  0.00  0.00    -0.234 N 
ATOM     46  H2  AFQ d          13.738  17.046  13.609  0.00  0.00     0.174 HD
ATOM     47  H3  AFQ d          14.955  16.774  12.332  0.00  0.00     0.174 HD
ENDBRANCH   4  45
BRANCH  10  48
ATOM     48  N14 AFQ d          18.969  16.603  21.675  0.00  0.00    -0.229 N 
ATOM     49  H22 AFQ d          19.913  16.193  21.719  0.00  0.00     0.177 HD
BRANCH  48  50
ATOM     50  C15 AFQ d          18.392  17.046  22.928  0.00  0.00    -0.005 C 
ATOM     51  H23 AFQ d          19.010  16.688  23.764  0.00  0.00     0.057 H 
ATOM     52  H24 AFQ d          17.373  16.642  23.026  0.00  0.00     0.057 H 
ATOM     53  H25 AFQ d          18.353  18.145  22.945  0.00  0.00     0.057 H 
ENDBRANCH  48  50
ENDBRANCH  10  48
TORSDOF 8
ENDMDL
MODEL 3
REMARK VINA RESULT:      -8.0      3.433      6.983
REMARK  8 active torsions:
REMARK  status: ('A' for Active; 'I' for Inactive)
REMARK    1  A    between atoms: C4_4  and  N17_5 
REMARK    2  A    between atoms: C10_8  and  C18_9 
REMARK    3  A    between atoms: C18_9  and  C19_10 
REMARK    4  A    between atoms: C19_10  and  N20_11 
REMARK    5  A    between atoms: N20_11  and  C21_12 
REMARK    6  A    between atoms: C21_12  and  C22_13 
REMARK    7  A    between atoms: C12_20  and  N14_21 
REMARK    8  A    between atoms: N14_21  and  C15_22 
ROOT
ATOM      1  C2  AFQ d          10.021  15.640  15.860  0.00  0.00     0.272 C 
ATOM      2  O16 AFQ d           9.446  16.023  14.856  0.00  0.00    -0.267 OA
ATOM      3  N3  AFQ d           9.476  14.796  16.777  0.00  0.00    -0.156 N 
ATOM      4  C4  AFQ d          10.198  14.511  17.901  0.00  0.00     0.679 C 
ATOM      5  N5  AFQ d          11.417  14.881  18.072  0.00  0.00    -0.190 N 
ATOM      6  C6  AFQ d          12.131  15.647  17.195  0.00  0.00     0.073 A 
ATOM      7  C10 AFQ d          13.477  15.986  17.463  0.00  0.00     0.004 A 
ATOM      8  C9  AFQ d          14.090  16.757  16.473  0.00  0.00     0.111 A 
ATOM      9  N11 AFQ d          15.349  17.221  16.288  0.00  0.00    -0.062 NA
ATOM     10  C12 AFQ d          15.442  17.907  15.215  0.00  0.00     0.701 A 
ATOM     11  N13 AFQ d          14.271  17.924  14.549  0.00  0.00    -0.188 N 
ATOM     12  C8  AFQ d          13.408  17.158  15.354  0.00  0.00     0.080 A 
ATOM     13  C7  AFQ d          12.077  16.866  15.062  0.00  0.00    -0.037 A 
ATOM     14  C1  AFQ d          11.445  16.098  16.053  0.00  0.00     0.062 A 
ATOM     15  H1  AFQ d           8.572  14.396  16.632  0.00  0.00     0.187 HD
ATOM     16  H4  AFQ d          11.891  14.578  18.934  0.00  0.00     0.184 HD
ATOM     17  H26 AFQ d          14.057  18.390  13.656  0.00  0.00     0.184 HD
ATOM     18  H27 AFQ d          11.579  17.200  14.159  0.00  0.00     0.088 H 
ENDROOT
BRANCH   7  19
ATOM     19  C18 AFQ d          14.216  15.756  18.768  0.00  0.00    -0.014 C 
ATOM     20  H5  AFQ d          13.487  15.408  19.515  0.00  0.00     0.042 H 
ATOM     21  H6  AFQ d          14.643  16.716  19.092  0.00  0.00     0.042 H 
BRANCH  19  22
ATOM     22  C19 AFQ d          15.380  14.706  18.700  0.00  0.00     0.085 C 
ATOM     23  H7  AFQ d          15.302  14.102  17.785  0.00  0.00     0.076 H 
ATOM     24  H8  AFQ d          15.355  14.044  19.579  0.00  0.00     0.076 H 
BRANCH  22  25
ATOM     25  N20 AFQ d          16.631  15.515  18.689  0.00  0.00    -0.074 N 
ATOM     26  H9  AFQ d          16.782  15.831  17.745  0.00  0.00     0.277 HD
ATOM     27  H10 AFQ d          17.388  14.911  18.967  0.00  0.00     0.277 HD
BRANCH  25  28
ATOM     28  C21 AFQ d          16.661  16.717  19.579  0.00  0.00     0.085 C 
ATOM     29  H11 AFQ d          15.672  17.198  19.587  0.00  0.00     0.076 H 
ATOM     30  H12 AFQ d          17.413  17.432  19.213  0.00  0.00     0.076 H 
BRANCH  28  31
ATOM     31  C22 AFQ d          17.032  16.252  21.020  0.00  0.00    -0.031 C 
ATOM     32  C26 AFQ d          15.960  16.611  22.064  0.00  0.00    -0.060 C 
ATOM     33  C25 AFQ d          16.746  16.735  23.393  0.00  0.00    -0.065 C 
ATOM     34  H14 AFQ d          15.202  15.817  22.132  0.00  0.00     0.033 H 
ATOM     35  H15 AFQ d          15.472  17.563  21.809  0.00  0.00     0.033 H 
ATOM     36  C24 AFQ d          18.124  17.354  22.981  0.00  0.00    -0.065 C 
ATOM     37  H16 AFQ d          16.886  15.747  23.855  0.00  0.00     0.033 H 
ATOM     38  H17 AFQ d          16.217  17.396  24.096  0.00  0.00     0.033 H 
ATOM     39  C23 AFQ d          18.324  16.951  21.508  0.00  0.00    -0.060 C 
ATOM     40  H18 AFQ d          18.932  16.947  23.606  0.00  0.00     0.033 H 
ATOM     41  H19 AFQ d          18.100  18.450  23.081  0.00  0.00     0.033 H 
ATOM     42  H20 AFQ d          18.516  17.846  20.900  0.00  0.00     0.033 H 
ATOM     43  H21 AFQ d          19.175  16.260  21.424  0.00  0.00     0.033 H 
ATOM     44  H13 AFQ d          17.179  15.162  21.005  0.00  0.00     0.042 H 
ENDBRANCH  28  31
ENDBRANCH  25  28
ENDBRANCH  22  25
ENDBRANCH  19  22
ENDBRANCH   7  19
BRANCH   4  45
ATOM     45  N17 AFQ d           9.592  13.736  18.839  0.00  0.00    -0.234 N 
ATOM     46  H2  AFQ d           9.918  12.772  18.999  0.00  0.00     0.174 HD
ATOM     47  H3  AFQ d           8.807  14.112  19.389  0.00  0.00     0.174 HD
ENDBRANCH   4  45
BRANCH  10  48
ATOM     48  N14 AFQ d          16.444  18.583  14.649  0.00  0.00    -0.229 N 
ATOM     49  H22 AFQ d          16.230  19.532  14.309  0.00  0.00     0.177 HD
BRANCH  48  50
ATOM     50  C15 AFQ d          17.803  18.115  14.464  0.00  0.00    -0.005 C 
ATOM     51  H23 AFQ d          18.241  17.866  15.441  0.00  0.00     0.057 H 
ATOM     52  H24 AFQ d          18.400  18.904  13.984  0.00  0.00     0.057 H 
ATOM     53  H25 AFQ d          17.799  17.219  13.826  0.00  0.00     0.057 H 
ENDBRANCH  48  50
ENDBRANCH  10  48
TORSDOF 8
ENDMDL
