MODEL 1
REMARK VINA RESULT:      -5.4      0.000      0.000
REMARK  7 active torsions:
REMARK  status: ('A' for Active; 'I' for Inactive)
REMARK    1  A    between atoms: CE_10  and  N1_1 
REMARK    2  A    between atoms: CA_3  and  N_2 
REMARK    3  A    between atoms: CA_3  and  C_4 
REMARK    4  A    between atoms: CB_7  and  CA_3 
REMARK    5  A    between atoms: CG_8  and  CB_7 
REMARK    6  A    between atoms: CD_9  and  CG_8 
REMARK    7  A    between atoms: CD_9  and  CE_10 
ROOT
ATOM      1  CB  MOL d          22.276 -16.490   8.543  0.00  0.00    -0.029 C 
ATOM      2  H5  MOL d          22.536 -17.316   9.222  0.00  0.00     0.036 H 
ATOM      3  H6  MOL d          22.247 -15.546   9.108  0.00  0.00     0.036 H 
ENDROOT
BRANCH   1   4
ATOM      4  CA  MOL d          20.873 -16.756   7.951  0.00  0.00     0.182 C 
ATOM      5  H4  MOL d          20.175 -16.944   8.779  0.00  0.00     0.101 H 
BRANCH   4   6
ATOM      6  N   MOL d          20.930 -17.965   7.085  0.00  0.00    -0.065 N 
ATOM      7  H1  MOL d          21.376 -18.717   7.586  0.00  0.00     0.275 HD
ATOM      8  H2  MOL d          21.459 -17.757   6.252  0.00  0.00     0.275 HD
ATOM      9  H3  MOL d          19.994 -18.239   6.830  0.00  0.00     0.275 HD
ENDBRANCH   4   6
BRANCH   4  10
ATOM     10  C   MOL d          20.350 -15.555   7.140  0.00  0.00     0.204 C 
ATOM     11  OXT MOL d          20.211 -15.656   5.884  0.00  0.00    -0.646 OA
ATOM     12  O   MOL d          20.059 -14.470   7.727  0.00  0.00    -0.646 OA
ENDBRANCH   4  10
ENDBRANCH   1   4
BRANCH   1  13
ATOM     13  CG  MOL d          23.354 -16.384   7.464  0.00  0.00    -0.061 C 
ATOM     14  H7  MOL d          22.922 -15.929   6.560  0.00  0.00     0.033 H 
ATOM     15  H8  MOL d          23.730 -17.390   7.225  0.00  0.00     0.033 H 
BRANCH  13  16
ATOM     16  CD  MOL d          24.500 -15.525   7.960  0.00  0.00    -0.044 C 
ATOM     17  H9  MOL d          25.445 -16.083   7.893  0.00  0.00     0.035 H 
ATOM     18  H10 MOL d          24.322 -15.226   9.004  0.00  0.00     0.035 H 
BRANCH  16  19
ATOM     19  CE  MOL d          24.559 -14.293   7.071  0.00  0.00     0.054 C 
ATOM     20  H11 MOL d          24.484 -14.617   6.022  0.00  0.00     0.073 H 
ATOM     21  H12 MOL d          23.706 -13.644   7.317  0.00  0.00     0.073 H 
BRANCH  19  22
ATOM     22  N1  MOL d          25.774 -13.531   7.229  0.00  0.00    -0.156 N 
ATOM     23  O2  MOL d          26.782 -14.068   7.889  0.00  0.00    -0.537 OA
ATOM     24  O1  MOL d          25.877 -12.302   6.768  0.00  0.00    -0.537 OA
ENDBRANCH  19  22
ENDBRANCH  16  19
ENDBRANCH  13  16
ENDBRANCH   1  13
TORSDOF 7
ENDMDL
MODEL 2
REMARK VINA RESULT:      -5.3      1.255      4.958
REMARK  7 active torsions:
REMARK  status: ('A' for Active; 'I' for Inactive)
REMARK    1  A    between atoms: CE_10  and  N1_1 
REMARK    2  A    between atoms: CA_3  and  N_2 
REMARK    3  A    between atoms: CA_3  and  C_4 
REMARK    4  A    between atoms: CB_7  and  CA_3 
REMARK    5  A    between atoms: CG_8  and  CB_7 
REMARK    6  A    between atoms: CD_9  and  CG_8 
REMARK    7  A    between atoms: CD_9  and  CE_10 
ROOT
ATOM      1  CB  MOL d          24.039 -15.698   8.296  0.00  0.00    -0.029 C 
ATOM      2  H5  MOL d          23.541 -15.372   9.221  0.00  0.00     0.036 H 
ATOM      3  H6  MOL d          25.078 -15.985   8.520  0.00  0.00     0.036 H 
ENDROOT
BRANCH   1   4
ATOM      4  CA  MOL d          24.056 -14.517   7.298  0.00  0.00     0.182 C 
ATOM      5  H4  MOL d          23.290 -13.790   7.605  0.00  0.00     0.101 H 
BRANCH   4   6
ATOM      6  N   MOL d          23.723 -15.022   5.938  0.00  0.00    -0.065 N 
ATOM      7  H1  MOL d          23.898 -16.014   5.896  0.00  0.00     0.275 HD
ATOM      8  H2  MOL d          24.296 -14.551   5.255  0.00  0.00     0.275 HD
ATOM      9  H3  MOL d          22.750 -14.844   5.743  0.00  0.00     0.275 HD
ENDBRANCH   4   6
BRANCH   4  10
ATOM     10  C   MOL d          25.420 -13.802   7.270  0.00  0.00     0.204 C 
ATOM     11  OXT MOL d          26.467 -14.429   7.611  0.00  0.00    -0.646 OA
ATOM     12  O   MOL d          25.494 -12.590   6.907  0.00  0.00    -0.646 OA
ENDBRANCH   4  10
ENDBRANCH   1   4
BRANCH   1  13
ATOM     13  CG  MOL d          23.300 -16.917   7.744  0.00  0.00    -0.061 C 
ATOM     14  H7  MOL d          23.915 -17.817   7.900  0.00  0.00     0.033 H 
ATOM     15  H8  MOL d          23.120 -16.778   6.668  0.00  0.00     0.033 H 
BRANCH  13  16
ATOM     16  CD  MOL d          21.974 -17.086   8.458  0.00  0.00    -0.044 C 
ATOM     17  H9  MOL d          21.774 -16.210   9.092  0.00  0.00     0.035 H 
ATOM     18  H10 MOL d          21.994 -17.992   9.082  0.00  0.00     0.035 H 
BRANCH  16  19
ATOM     19  CE  MOL d          20.899 -17.213   7.392  0.00  0.00     0.054 C 
ATOM     20  H11 MOL d          21.270 -17.881   6.600  0.00  0.00     0.073 H 
ATOM     21  H12 MOL d          20.001 -17.652   7.852  0.00  0.00     0.073 H 
BRANCH  19  22
ATOM     22  N1  MOL d          20.535 -15.952   6.792  0.00  0.00    -0.156 N 
ATOM     23  O2  MOL d          20.777 -15.763   5.508  0.00  0.00    -0.537 OA
ATOM     24  O1  MOL d          20.013 -14.978   7.507  0.00  0.00    -0.537 OA
ENDBRANCH  19  22
ENDBRANCH  16  19
ENDBRANCH  13  16
ENDBRANCH   1  13
TORSDOF 7
ENDMDL
MODEL 3
REMARK VINA RESULT:      -4.7      2.051      5.096
REMARK  7 active torsions:
REMARK  status: ('A' for Active; 'I' for Inactive)
REMARK    1  A    between atoms: CE_10  and  N1_1 
REMARK    2  A    between atoms: CA_3  and  N_2 
REMARK    3  A    between atoms: CA_3  and  C_4 
REMARK    4  A    between atoms: CB_7  and  CA_3 
REMARK    5  A    between atoms: CG_8  and  CB_7 
REMARK    6  A    between atoms: CD_9  and  CG_8 
REMARK    7  A    between atoms: CD_9  and  CE_10 
ROOT
ATOM      1  CB  MOL d          23.117 -14.426   7.135  0.00  0.00    -0.029 C 
ATOM      2  H5  MOL d          22.707 -14.371   6.115  0.00  0.00     0.036 H 
ATOM      3  H6  MOL d          23.144 -13.417   7.574  0.00  0.00     0.036 H 
ENDROOT
BRANCH   1   4
ATOM      4  CA  MOL d          24.561 -14.974   7.061  0.00  0.00     0.182 C 
ATOM      5  H4  MOL d          24.713 -15.422   6.069  0.00  0.00     0.101 H 
BRANCH   4   6
ATOM      6  N   MOL d          24.737 -16.027   8.097  0.00  0.00    -0.065 N 
ATOM      7  H1  MOL d          25.707 -16.075   8.366  0.00  0.00     0.275 HD
ATOM      8  H2  MOL d          24.447 -16.918   7.724  0.00  0.00     0.275 HD
ATOM      9  H3  MOL d          24.175 -15.802   8.904  0.00  0.00     0.275 HD
ENDBRANCH   4   6
BRANCH   4  10
ATOM     10  C   MOL d          25.611 -13.865   7.259  0.00  0.00     0.204 C 
ATOM     11  OXT MOL d          26.759 -14.157   7.711  0.00  0.00    -0.646 OA
ATOM     12  O   MOL d          25.329 -12.664   6.969  0.00  0.00    -0.646 OA
ENDBRANCH   4  10
ENDBRANCH   1   4
BRANCH   1  13
ATOM     13  CG  MOL d          22.201 -15.307   7.985  0.00  0.00    -0.061 C 
ATOM     14  H7  MOL d          21.815 -14.721   8.832  0.00  0.00     0.033 H 
ATOM     15  H8  MOL d          22.773 -16.167   8.364  0.00  0.00     0.033 H 
BRANCH  13  16
ATOM     16  CD  MOL d          21.040 -15.806   7.148  0.00  0.00    -0.044 C 
ATOM     17  H9  MOL d          21.169 -15.493   6.102  0.00  0.00     0.035 H 
ATOM     18  H10 MOL d          20.094 -15.401   7.539  0.00  0.00     0.035 H 
BRANCH  16  19
ATOM     19  CE  MOL d          21.034 -17.323   7.241  0.00  0.00     0.054 C 
ATOM     20  H11 MOL d          20.964 -17.607   8.302  0.00  0.00     0.073 H 
ATOM     21  H12 MOL d          20.154 -17.702   6.700  0.00  0.00     0.073 H 
BRANCH  19  22
ATOM     22  N1  MOL d          22.214 -17.935   6.680  0.00  0.00    -0.156 N 
ATOM     23  O2  MOL d          22.403 -17.878   5.376  0.00  0.00    -0.537 OA
ATOM     24  O1  MOL d          23.074 -18.584   7.436  0.00  0.00    -0.537 OA
ENDBRANCH  19  22
ENDBRANCH  16  19
ENDBRANCH  13  16
ENDBRANCH   1  13
TORSDOF 7
ENDMDL
MODEL 4
REMARK VINA RESULT:      -4.7      2.089      2.469
REMARK  7 active torsions:
REMARK  status: ('A' for Active; 'I' for Inactive)
REMARK    1  A    between atoms: CE_10  and  N1_1 
REMARK    2  A    between atoms: CA_3  and  N_2 
REMARK    3  A    between atoms: CA_3  and  C_4 
REMARK    4  A    between atoms: CB_7  and  CA_3 
REMARK    5  A    between atoms: CG_8  and  CB_7 
REMARK    6  A    between atoms: CD_9  and  CG_8 
REMARK    7  A    between atoms: CD_9  and  CE_10 
ROOT
ATOM      1  CB  MOL d          22.148 -15.741   7.423  0.00  0.00    -0.029 C 
ATOM      2  H5  MOL d          21.451 -16.374   7.991  0.00  0.00     0.036 H 
ATOM      3  H6  MOL d          21.713 -14.737   7.298  0.00  0.00     0.036 H 
ENDROOT
BRANCH   1   4
ATOM      4  CA  MOL d          22.362 -16.365   6.026  0.00  0.00     0.182 C 
ATOM      5  H4  MOL d          23.354 -16.065   5.658  0.00  0.00     0.101 H 
BRANCH   4   6
ATOM      6  N   MOL d          21.326 -15.845   5.094  0.00  0.00    -0.065 N 
ATOM      7  H1  MOL d          21.430 -16.288   4.194  0.00  0.00     0.275 HD
ATOM      8  H2  MOL d          21.436 -14.848   4.992  0.00  0.00     0.275 HD
ATOM      9  H3  MOL d          20.410 -16.047   5.464  0.00  0.00     0.275 HD
ENDBRANCH   4   6
BRANCH   4  10
ATOM     10  C   MOL d          22.306 -17.904   6.065  0.00  0.00     0.204 C 
ATOM     11  OXT MOL d          21.946 -18.495   7.127  0.00  0.00    -0.646 OA
ATOM     12  O   MOL d          22.616 -18.578   5.037  0.00  0.00    -0.646 OA
ENDBRANCH   4  10
ENDBRANCH   1   4
BRANCH   1  13
ATOM     13  CG  MOL d          23.452 -15.616   8.213  0.00  0.00    -0.061 C 
ATOM     14  H7  MOL d          23.681 -16.580   8.691  0.00  0.00     0.033 H 
ATOM     15  H8  MOL d          23.337 -14.841   8.984  0.00  0.00     0.033 H 
BRANCH  13  16
ATOM     16  CD  MOL d          24.585 -15.235   7.282  0.00  0.00    -0.044 C 
ATOM     17  H9  MOL d          24.397 -15.635   6.275  0.00  0.00     0.035 H 
ATOM     18  H10 MOL d          25.537 -15.636   7.664  0.00  0.00     0.035 H 
BRANCH  16  19
ATOM     19  CE  MOL d          24.642 -13.717   7.236  0.00  0.00     0.054 C 
ATOM     20  H11 MOL d          24.217 -13.380   6.279  0.00  0.00     0.073 H 
ATOM     21  H12 MOL d          24.039 -13.320   8.066  0.00  0.00     0.073 H 
BRANCH  19  22
ATOM     22  N1  MOL d          25.981 -13.190   7.352  0.00  0.00    -0.156 N 
ATOM     23  O2  MOL d          26.777 -13.673   8.288  0.00  0.00    -0.537 OA
ATOM     24  O1  MOL d          26.402 -12.214   6.578  0.00  0.00    -0.537 OA
ENDBRANCH  19  22
ENDBRANCH  16  19
ENDBRANCH  13  16
ENDBRANCH   1  13
TORSDOF 7
ENDMDL
MODEL 5
REMARK VINA RESULT:      -4.4      2.360      4.871
REMARK  7 active torsions:
REMARK  status: ('A' for Active; 'I' for Inactive)
REMARK    1  A    between atoms: CE_10  and  N1_1 
REMARK    2  A    between atoms: CA_3  and  N_2 
REMARK    3  A    between atoms: CA_3  and  C_4 
REMARK    4  A    between atoms: CB_7  and  CA_3 
REMARK    5  A    between atoms: CG_8  and  CB_7 
REMARK    6  A    between atoms: CD_9  and  CG_8 
REMARK    7  A    between atoms: CD_9  and  CE_10 
ROOT
ATOM      1  CB  MOL d          22.395 -15.213   8.057  0.00  0.00    -0.029 C 
ATOM      2  H5  MOL d          22.124 -14.440   8.791  0.00  0.00     0.036 H 
ATOM      3  H6  MOL d          22.988 -15.997   8.552  0.00  0.00     0.036 H 
ENDROOT
BRANCH   1   4
ATOM      4  CA  MOL d          23.255 -14.566   6.947  0.00  0.00     0.182 C 
ATOM      5  H4  MOL d          22.835 -13.577   6.714  0.00  0.00     0.101 H 
BRANCH   4   6
ATOM      6  N   MOL d          23.196 -15.415   5.727  0.00  0.00    -0.065 N 
ATOM      7  H1  MOL d          23.446 -14.862   4.921  0.00  0.00     0.275 HD
ATOM      8  H2  MOL d          22.260 -15.772   5.611  0.00  0.00     0.275 HD
ATOM      9  H3  MOL d          23.841 -16.183   5.820  0.00  0.00     0.275 HD
ENDBRANCH   4   6
BRANCH   4  10
ATOM     10  C   MOL d          24.720 -14.381   7.385  0.00  0.00     0.204 C 
ATOM     11  OXT MOL d          25.281 -15.265   8.098  0.00  0.00    -0.646 OA
ATOM     12  O   MOL d          25.362 -13.347   7.032  0.00  0.00    -0.646 OA
ENDBRANCH   4  10
ENDBRANCH   1   4
BRANCH   1  13
ATOM     13  CG  MOL d          21.112 -15.840   7.510  0.00  0.00    -0.061 C 
ATOM     14  H7  MOL d          21.270 -16.137   6.462  0.00  0.00     0.033 H 
ATOM     15  H8  MOL d          20.295 -15.105   7.564  0.00  0.00     0.033 H 
BRANCH  13  16
ATOM     16  CD  MOL d          20.743 -17.062   8.328  0.00  0.00    -0.044 C 
ATOM     17  H9  MOL d          19.692 -16.999   8.646  0.00  0.00     0.035 H 
ATOM     18  H10 MOL d          21.391 -17.131   9.214  0.00  0.00     0.035 H 
BRANCH  16  19
ATOM     19  CE  MOL d          20.946 -18.278   7.440  0.00  0.00     0.054 C 
ATOM     20  H11 MOL d          20.652 -19.176   8.005  0.00  0.00     0.073 H 
ATOM     21  H12 MOL d          20.302 -18.175   6.554  0.00  0.00     0.073 H 
BRANCH  19  22
ATOM     22  N1  MOL d          22.310 -18.443   6.998  0.00  0.00    -0.156 N 
ATOM     23  O2  MOL d          22.558 -18.496   5.703  0.00  0.00    -0.537 OA
ATOM     24  O1  MOL d          23.296 -18.586   7.857  0.00  0.00    -0.537 OA
ENDBRANCH  19  22
ENDBRANCH  16  19
ENDBRANCH  13  16
ENDBRANCH   1  13
TORSDOF 7
ENDMDL
MODEL 6
REMARK VINA RESULT:      -4.3      1.940      2.140
REMARK  7 active torsions:
REMARK  status: ('A' for Active; 'I' for Inactive)
REMARK    1  A    between atoms: CE_10  and  N1_1 
REMARK    2  A    between atoms: CA_3  and  N_2 
REMARK    3  A    between atoms: CA_3  and  C_4 
REMARK    4  A    between atoms: CB_7  and  CA_3 
REMARK    5  A    between atoms: CG_8  and  CB_7 
REMARK    6  A    between atoms: CD_9  and  CG_8 
REMARK    7  A    between atoms: CD_9  and  CE_10 
ROOT
ATOM      1  CB  MOL d          22.348 -17.811   6.356  0.00  0.00    -0.029 C 
ATOM      2  H5  MOL d          23.291 -17.470   5.905  0.00  0.00     0.036 H 
ATOM      3  H6  MOL d          22.110 -18.821   5.989  0.00  0.00     0.036 H 
ENDROOT
BRANCH   1   4
ATOM      4  CA  MOL d          21.216 -16.849   5.928  0.00  0.00     0.182 C 
ATOM      5  H4  MOL d          20.519 -17.398   5.279  0.00  0.00     0.101 H 
BRANCH   4   6
ATOM      6  N   MOL d          21.801 -15.718   5.159  0.00  0.00    -0.065 N 
ATOM      7  H1  MOL d          21.945 -14.931   5.774  0.00  0.00     0.275 HD
ATOM      8  H2  MOL d          21.171 -15.454   4.418  0.00  0.00     0.275 HD
ATOM      9  H3  MOL d          22.685 -16.001   4.765  0.00  0.00     0.275 HD
ENDBRANCH   4   6
BRANCH   4  10
ATOM     10  C   MOL d          20.429 -16.308   7.137  0.00  0.00     0.204 C 
ATOM     11  OXT MOL d          19.664 -17.081   7.787  0.00  0.00    -0.646 OA
ATOM     12  O   MOL d          20.549 -15.094   7.481  0.00  0.00    -0.646 OA
ENDBRANCH   4  10
ENDBRANCH   1   4
BRANCH   1  13
ATOM     13  CG  MOL d          22.523 -17.868   7.874  0.00  0.00    -0.061 C 
ATOM     14  H7  MOL d          22.400 -18.907   8.216  0.00  0.00     0.033 H 
ATOM     15  H8  MOL d          21.763 -17.233   8.352  0.00  0.00     0.033 H 
BRANCH  13  16
ATOM     16  CD  MOL d          23.904 -17.373   8.255  0.00  0.00    -0.044 C 
ATOM     17  H9  MOL d          24.586 -17.464   7.397  0.00  0.00     0.035 H 
ATOM     18  H10 MOL d          24.295 -17.961   9.099  0.00  0.00     0.035 H 
BRANCH  16  19
ATOM     19  CE  MOL d          23.766 -15.914   8.658  0.00  0.00     0.054 C 
ATOM     20  H11 MOL d          22.696 -15.656   8.675  0.00  0.00     0.073 H 
ATOM     21  H12 MOL d          24.189 -15.789   9.665  0.00  0.00     0.073 H 
BRANCH  19  22
ATOM     22  N1  MOL d          24.441 -15.006   7.762  0.00  0.00    -0.156 N 
ATOM     23  O2  MOL d          25.688 -14.663   8.023  0.00  0.00    -0.537 OA
ATOM     24  O1  MOL d          23.824 -14.484   6.723  0.00  0.00    -0.537 OA
ENDBRANCH  19  22
ENDBRANCH  16  19
ENDBRANCH  13  16
ENDBRANCH   1  13
TORSDOF 7
ENDMDL
MODEL 7
REMARK VINA RESULT:      -4.0      2.098      2.560
REMARK  7 active torsions:
REMARK  status: ('A' for Active; 'I' for Inactive)
REMARK    1  A    between atoms: CE_10  and  N1_1 
REMARK    2  A    between atoms: CA_3  and  N_2 
REMARK    3  A    between atoms: CA_3  and  C_4 
REMARK    4  A    between atoms: CB_7  and  CA_3 
REMARK    5  A    between atoms: CG_8  and  CB_7 
REMARK    6  A    between atoms: CD_9  and  CG_8 
REMARK    7  A    between atoms: CD_9  and  CE_10 
ROOT
ATOM      1  CB  MOL d          23.396 -16.221   8.451  0.00  0.00    -0.029 C 
ATOM      2  H5  MOL d          24.493 -16.158   8.504  0.00  0.00     0.036 H 
ATOM      3  H6  MOL d          22.954 -15.577   9.226  0.00  0.00     0.036 H 
ENDROOT
BRANCH   1   4
ATOM      4  CA  MOL d          22.969 -17.683   8.717  0.00  0.00     0.182 C 
ATOM      5  H4  MOL d          22.534 -17.741   9.725  0.00  0.00     0.101 H 
BRANCH   4   6
ATOM      6  N   MOL d          24.169 -18.561   8.658  0.00  0.00    -0.065 N 
ATOM      7  H1  MOL d          24.211 -19.128   9.491  0.00  0.00     0.275 HD
ATOM      8  H2  MOL d          24.999 -17.992   8.598  0.00  0.00     0.275 HD
ATOM      9  H3  MOL d          24.109 -19.157   7.848  0.00  0.00     0.275 HD
ENDBRANCH   4   6
BRANCH   4  10
ATOM     10  C   MOL d          21.914 -18.170   7.705  0.00  0.00     0.204 C 
ATOM     11  OXT MOL d          20.686 -18.150   8.017  0.00  0.00    -0.646 OA
ATOM     12  O   MOL d          22.274 -18.588   6.564  0.00  0.00    -0.646 OA
ENDBRANCH   4  10
ENDBRANCH   1   4
BRANCH   1  13
ATOM     13  CG  MOL d          22.942 -15.721   7.079  0.00  0.00    -0.061 C 
ATOM     14  H7  MOL d          22.082 -15.047   7.204  0.00  0.00     0.033 H 
ATOM     15  H8  MOL d          22.648 -16.580   6.458  0.00  0.00     0.033 H 
BRANCH  13  16
ATOM     16  CD  MOL d          24.072 -14.973   6.400  0.00  0.00    -0.044 C 
ATOM     17  H9  MOL d          23.762 -14.654   5.395  0.00  0.00     0.035 H 
ATOM     18  H10 MOL d          24.959 -15.621   6.322  0.00  0.00     0.035 H 
BRANCH  16  19
ATOM     19  CE  MOL d          24.390 -13.759   7.257  0.00  0.00     0.054 C 
ATOM     20  H11 MOL d          23.818 -12.901   6.873  0.00  0.00     0.073 H 
ATOM     21  H12 MOL d          24.081 -13.972   8.292  0.00  0.00     0.073 H 
BRANCH  19  22
ATOM     22  N1  MOL d          25.791 -13.411   7.261  0.00  0.00    -0.156 N 
ATOM     23  O2  MOL d          26.150 -12.214   6.839  0.00  0.00    -0.537 OA
ATOM     24  O1  MOL d          26.710 -14.276   7.631  0.00  0.00    -0.537 OA
ENDBRANCH  19  22
ENDBRANCH  16  19
ENDBRANCH  13  16
ENDBRANCH   1  13
TORSDOF 7
ENDMDL
MODEL 8
REMARK VINA RESULT:      -3.9      1.664      5.181
REMARK  7 active torsions:
REMARK  status: ('A' for Active; 'I' for Inactive)
REMARK    1  A    between atoms: CE_10  and  N1_1 
REMARK    2  A    between atoms: CA_3  and  N_2 
REMARK    3  A    between atoms: CA_3  and  C_4 
REMARK    4  A    between atoms: CB_7  and  CA_3 
REMARK    5  A    between atoms: CG_8  and  CB_7 
REMARK    6  A    between atoms: CD_9  and  CG_8 
REMARK    7  A    between atoms: CD_9  and  CE_10 
ROOT
ATOM      1  CB  MOL d          23.164 -14.618   7.198  0.00  0.00    -0.029 C 
ATOM      2  H5  MOL d          23.132 -13.519   7.201  0.00  0.00     0.036 H 
ATOM      3  H6  MOL d          22.722 -15.000   8.131  0.00  0.00     0.036 H 
ENDROOT
BRANCH   1   4
ATOM      4  CA  MOL d          24.640 -15.073   7.126  0.00  0.00     0.182 C 
ATOM      5  H4  MOL d          24.811 -15.547   6.149  0.00  0.00     0.101 H 
BRANCH   4   6
ATOM      6  N   MOL d          24.895 -16.072   8.198  0.00  0.00    -0.065 N 
ATOM      7  H1  MOL d          25.444 -15.647   8.930  0.00  0.00     0.275 HD
ATOM      8  H2  MOL d          25.399 -16.856   7.813  0.00  0.00     0.275 HD
ATOM      9  H3  MOL d          24.017 -16.390   8.578  0.00  0.00     0.275 HD
ENDBRANCH   4   6
BRANCH   4  10
ATOM     10  C   MOL d          25.617 -13.890   7.269  0.00  0.00     0.204 C 
ATOM     11  OXT MOL d          25.255 -12.728   6.918  0.00  0.00    -0.646 OA
ATOM     12  O   MOL d          26.779 -14.080   7.739  0.00  0.00    -0.646 OA
ENDBRANCH   4  10
ENDBRANCH   1   4
BRANCH   1  13
ATOM     13  CG  MOL d          22.338 -15.130   6.017  0.00  0.00    -0.061 C 
ATOM     14  H7  MOL d          22.598 -14.556   5.115  0.00  0.00     0.033 H 
ATOM     15  H8  MOL d          21.268 -15.001   6.238  0.00  0.00     0.033 H 
BRANCH  13  16
ATOM     16  CD  MOL d          22.629 -16.598   5.780  0.00  0.00    -0.044 C 
ATOM     17  H9  MOL d          23.700 -16.799   5.931  0.00  0.00     0.035 H 
ATOM     18  H10 MOL d          22.344 -16.878   4.755  0.00  0.00     0.035 H 
BRANCH  16  19
ATOM     19  CE  MOL d          21.805 -17.390   6.783  0.00  0.00     0.054 C 
ATOM     20  H11 MOL d          21.462 -18.316   6.298  0.00  0.00     0.073 H 
ATOM     21  H12 MOL d          22.447 -17.640   7.641  0.00  0.00     0.073 H 
BRANCH  19  22
ATOM     22  N1  MOL d          20.651 -16.673   7.269  0.00  0.00    -0.156 N 
ATOM     23  O2  MOL d          20.576 -16.382   8.554  0.00  0.00    -0.537 OA
ATOM     24  O1  MOL d          19.660 -16.347   6.467  0.00  0.00    -0.537 OA
ENDBRANCH  19  22
ENDBRANCH  16  19
ENDBRANCH  13  16
ENDBRANCH   1  13
TORSDOF 7
ENDMDL
