MODEL 1
REMARK VINA RESULT:      -8.8      0.000      0.000
REMARK  11 active torsions:
REMARK  status: ('A' for Active; 'I' for Inactive)
REMARK    1  A    between atoms: C20_3  and  C36_4 
REMARK    2  A    between atoms: C16_8  and  C35_9 
REMARK    3  A    between atoms: C5_13  and  O36_14 
REMARK    4  A    between atoms: C8_19  and  C25_20 
REMARK    5  A    between atoms: C10_22  and  O26_23 
REMARK    6  A    between atoms: O26_23  and  C27_24 
REMARK    7  A    between atoms: C11_25  and  O28_26 
REMARK    8  A    between atoms: C12_27  and  C29_28 
REMARK    9  A    between atoms: C14_30  and  C30_31 
REMARK   10  A    between atoms: C15_32  and  O31_33 
REMARK   11  A    between atoms: O31_33  and  C32_34 
REMARK       I    between atoms: C32_34  and  N34_36 
ROOT
ATOM      1  O37 BC6 d          41.344  -5.579  41.915  0.00  0.00    -0.268 OA
ATOM      2  C21 BC6 d          41.294  -6.016  40.768  0.00  0.00     0.251 C 
ATOM      3  C20 BC6 d          41.769  -7.378  40.579  0.00  0.00     0.002 C 
ATOM      4  C19 BC6 d          40.924  -8.310  40.042  0.00  0.00    -0.092 C 
ATOM      5  C18 BC6 d          41.204  -9.755  39.782  0.00  0.00    -0.049 C 
ATOM      6  C17 BC6 d          40.379 -10.148  38.553  0.00  0.00    -0.057 C 
ATOM      7  C16 BC6 d          38.894 -10.377  38.820  0.00  0.00    -0.028 C 
ATOM      8  N22 BC6 d          40.825  -5.224  39.790  0.00  0.00    -0.323 N 
ATOM      9  C3  BC6 d          40.978  -5.421  38.439  0.00  0.00     0.038 A 
ATOM     10  C4  BC6 d          39.902  -5.134  37.616  0.00  0.00    -0.025 A 
ATOM     11  C5  BC6 d          39.984  -5.305  36.233  0.00  0.00     0.068 A 
ATOM     12  C6  BC6 d          41.154  -5.780  35.643  0.00  0.00    -0.045 A 
ATOM     13  C1  BC6 d          42.252  -6.089  36.474  0.00  0.00    -0.053 A 
ATOM     14  C2  BC6 d          42.159  -5.885  37.855  0.00  0.00    -0.051 A 
ATOM     15  C7  BC6 d          43.546  -6.646  35.916  0.00  0.00    -0.038 C 
ATOM     16  C8  BC6 d          43.530  -8.187  35.759  0.00  0.00    -0.051 C 
ATOM     17  C9  BC6 d          42.392  -8.655  34.806  0.00  0.00    -0.035 C 
ATOM     18  C10 BC6 d          42.222 -10.160  34.627  0.00  0.00     0.063 C 
ATOM     19  C11 BC6 d          41.134 -10.506  33.609  0.00  0.00     0.067 C 
ATOM     20  C12 BC6 d          39.771  -9.937  34.020  0.00  0.00    -0.014 C 
ATOM     21  C13 BC6 d          39.284 -10.555  35.326  0.00  0.00    -0.092 C 
ATOM     22  C14 BC6 d          38.580  -9.948  36.326  0.00  0.00    -0.058 C 
ATOM     23  C15 BC6 d          38.181 -10.800  37.510  0.00  0.00     0.074 C 
ATOM     24  H4  BC6 d          39.929  -7.957  39.773  0.00  0.00     0.077 H 
ATOM     25  H5  BC6 d          40.904 -10.362  40.649  0.00  0.00     0.038 H 
ATOM     26  H6  BC6 d          42.275  -9.904  39.583  0.00  0.00     0.038 H 
ATOM     27  H7  BC6 d          40.799 -11.078  38.143  0.00  0.00     0.034 H 
ATOM     28  H8  BC6 d          40.472  -9.345  37.808  0.00  0.00     0.034 H 
ATOM     29  H9  BC6 d          38.460  -9.424  39.157  0.00  0.00     0.043 H 
ATOM     30  H13 BC6 d          40.316  -4.411  40.073  0.00  0.00     0.169 HD
ATOM     31  H14 BC6 d          38.980  -4.769  38.054  0.00  0.00     0.091 H 
ATOM     32  H16 BC6 d          41.218  -5.909  34.569  0.00  0.00     0.088 H 
ATOM     33  H17 BC6 d          43.018  -6.090  38.483  0.00  0.00     0.087 H 
ATOM     34  H18 BC6 d          44.366  -6.372  36.596  0.00  0.00     0.040 H 
ATOM     35  H19 BC6 d          43.723  -6.196  34.927  0.00  0.00     0.040 H 
ATOM     36  H20 BC6 d          44.479  -8.459  35.276  0.00  0.00     0.040 H 
ATOM     37  H24 BC6 d          42.588  -8.221  33.815  0.00  0.00     0.037 H 
ATOM     38  H25 BC6 d          41.444  -8.258  35.199  0.00  0.00     0.037 H 
ATOM     39  H26 BC6 d          41.946 -10.594  35.599  0.00  0.00     0.087 H 
ATOM     40  H30 BC6 d          41.047 -11.599  33.517  0.00  0.00     0.087 H 
ATOM     41  H32 BC6 d          39.823  -8.841  34.103  0.00  0.00     0.049 H 
ATOM     42  H36 BC6 d          39.527 -11.606  35.480  0.00  0.00     0.078 H 
ATOM     43  H40 BC6 d          38.397 -11.857  37.293  0.00  0.00     0.092 H 
ENDROOT
BRANCH  23  44
ATOM     44  O31 BC6 d          36.791 -10.604  37.729  0.00  0.00    -0.294 OA
BRANCH  44  45
ATOM     45  C32 BC6 d          35.890 -11.116  36.735  0.00  0.00     0.358 C 
ATOM     46  O33 BC6 d          36.033 -12.267  36.355  0.00  0.00    -0.239 OA
ATOM     47  N34 BC6 d          34.970 -10.251  36.338  0.00  0.00    -0.346 N 
ATOM     48  H41 BC6 d          34.298 -10.518  35.648  0.00  0.00     0.161 HD
ATOM     49  H42 BC6 d          34.948  -9.331  36.728  0.00  0.00     0.161 HD
ENDBRANCH  44  45
ENDBRANCH  23  44
BRANCH   7  50
ATOM     50  C35 BC6 d          38.654 -11.421  39.923  0.00  0.00    -0.070 C 
ATOM     51  H10 BC6 d          38.348 -10.912  40.850  0.00  0.00     0.028 H 
ATOM     52  H11 BC6 d          39.582 -11.983  40.103  0.00  0.00     0.028 H 
ATOM     53  H12 BC6 d          37.861 -12.114  39.607  0.00  0.00     0.028 H 
ENDBRANCH   7  50
BRANCH  22  54
ATOM     54  C30 BC6 d          38.149  -8.504  36.283  0.00  0.00    -0.052 C 
ATOM     55  H37 BC6 d          37.537  -8.331  35.385  0.00  0.00     0.033 H 
ATOM     56  H38 BC6 d          39.038  -7.857  36.251  0.00  0.00     0.033 H 
ATOM     57  H39 BC6 d          37.558  -8.272  37.181  0.00  0.00     0.033 H 
ENDBRANCH  22  54
BRANCH  20  58
ATOM     58  C29 BC6 d          38.758 -10.372  32.966  0.00  0.00    -0.067 C 
ATOM     59  H33 BC6 d          37.941  -9.636  32.917  0.00  0.00     0.028 H 
ATOM     60  H34 BC6 d          38.348 -11.357  33.235  0.00  0.00     0.028 H 
ATOM     61  H35 BC6 d          39.253 -10.437  31.986  0.00  0.00     0.028 H 
ENDBRANCH  20  58
BRANCH  19  62
ATOM     62  O28 BC6 d          41.569  -9.940  32.353  0.00  0.00    -0.392 OA
ATOM     63  H31 BC6 d          40.821  -9.841  31.776  0.00  0.00     0.210 HD
ENDBRANCH  19  62
BRANCH   3  64
ATOM     64  C36 BC6 d          43.153  -7.691  41.067  0.00  0.00    -0.046 C 
ATOM     65  H1  BC6 d          43.441  -6.967  41.843  0.00  0.00     0.033 H 
ATOM     66  H2  BC6 d          43.860  -7.630  40.228  0.00  0.00     0.033 H 
ATOM     67  H3  BC6 d          43.171  -8.707  41.488  0.00  0.00     0.033 H 
ENDBRANCH   3  64
BRANCH  18  68
ATOM     68  O26 BC6 d          43.456 -10.757  34.175  0.00  0.00    -0.388 OA
BRANCH  68  69
ATOM     69  C27 BC6 d          43.580 -12.129  34.479  0.00  0.00     0.005 C 
ATOM     70  H27 BC6 d          44.454 -12.282  35.128  0.00  0.00     0.066 H 
ATOM     71  H28 BC6 d          43.710 -12.700  33.548  0.00  0.00     0.066 H 
ATOM     72  H29 BC6 d          42.673 -12.473  34.997  0.00  0.00     0.066 H 
ENDBRANCH  68  69
ENDBRANCH  18  68
BRANCH  16  73
ATOM     73  C25 BC6 d          43.492  -8.943  37.100  0.00  0.00    -0.073 C 
ATOM     74  H21 BC6 d          43.963  -8.328  37.881  0.00  0.00     0.028 H 
ATOM     75  H22 BC6 d          44.039  -9.892  37.001  0.00  0.00     0.028 H 
ATOM     76  H23 BC6 d          42.447  -9.150  37.375  0.00  0.00     0.028 H 
ENDBRANCH  16  73
BRANCH  11  77
ATOM     77  O36 BC6 d          38.865  -5.047  35.492  0.00  0.00    -0.361 OA
ATOM     78  H15 BC6 d          38.480  -4.226  35.776  0.00  0.00     0.217 HD
ENDBRANCH  11  77
TORSDOF 11
ENDMDL
