MODEL 1
REMARK VINA RESULT:      -9.4      0.000      0.000
REMARK  11 active torsions:
REMARK  status: ('A' for Active; 'I' for Inactive)
REMARK    1  A    between atoms: CAA_1  and  CAP_2 
REMARK    2  A    between atoms: CAP_2  and  CAQ_3 
REMARK    3  A    between atoms: CAQ_3  and  CAS_4 
REMARK    4  A    between atoms: CAS_4  and  CAV_5 
REMARK    5  A    between atoms: CAX_10  and  CAY_11 
REMARK    6  A    between atoms: CAW_16  and  CAT_17 
REMARK    7  A    between atoms: CAT_17  and  CAR_18 
REMARK    8  A    between atoms: CAR_18  and  CAU_19 
REMARK    9  A    between atoms: CAU_19  and  CAZ_20 
REMARK   10  A    between atoms: CAZ_20  and  PBA_21 
REMARK   11  A    between atoms: CAZ_20  and  SBB_25 
ROOT
ATOM      1  CAY B69 d          16.460  55.648  37.470  0.00  0.00    -0.026 A 
ATOM      2  CAO B69 d          17.103  54.884  38.439  0.00  0.00    -0.072 A 
ATOM      3  CAK B69 d          18.267  54.192  38.115  0.00  0.00    -0.076 A 
ATOM      4  CAN B69 d          16.972  55.698  36.179  0.00  0.00    -0.072 A 
ATOM      5  CAJ B69 d          18.136  55.008  35.856  0.00  0.00    -0.076 A 
ATOM      6  CAW B69 d          18.788  54.257  36.828  0.00  0.00    -0.058 A 
ATOM      7  H14 B69 d          16.699  54.828  39.443  0.00  0.00     0.084 H 
ATOM      8  H15 B69 d          18.769  53.598  38.870  0.00  0.00     0.084 H 
ATOM      9  H16 B69 d          16.461  56.279  35.419  0.00  0.00     0.084 H 
ATOM     10  H17 B69 d          18.534  55.056  34.849  0.00  0.00     0.084 H 
ENDROOT
BRANCH   1  11
ATOM     11  CAX B69 d          15.379  56.448  37.823  0.00  0.00    -0.026 A 
ATOM     12  CAM B69 d          14.305  56.637  36.959  0.00  0.00    -0.072 A 
ATOM     13  CAI B69 d          13.280  57.511  37.301  0.00  0.00    -0.076 A 
ATOM     14  H11 B69 d          14.268  56.101  36.017  0.00  0.00     0.084 H 
ATOM     15  CAV B69 d          13.311  58.194  38.513  0.00  0.00    -0.058 A 
ATOM     16  H10 B69 d          12.450  57.661  36.620  0.00  0.00     0.084 H 
ATOM     17  CAH B69 d          14.391  58.017  39.369  0.00  0.00    -0.076 A 
ATOM     18  CAL B69 d          15.418  57.145  39.026  0.00  0.00    -0.072 A 
ATOM     19  H12 B69 d          14.434  58.561  40.305  0.00  0.00     0.084 H 
ATOM     20  H13 B69 d          16.255  57.006  39.701  0.00  0.00     0.084 H 
BRANCH  15  21
ATOM     21  CAS B69 d          12.060  58.910  39.030  0.00  0.00    -0.041 C 
ATOM     22  H8  B69 d          11.209  58.222  38.920  0.00  0.00     0.040 H 
ATOM     23  H9  B69 d          12.216  59.133  40.095  0.00  0.00     0.040 H 
BRANCH  21  24
ATOM     24  CAQ B69 d          11.697  60.220  38.326  0.00  0.00    -0.062 C 
ATOM     25  H6  B69 d          12.414  61.005  38.604  0.00  0.00     0.033 H 
ATOM     26  H7  B69 d          11.716  60.075  37.235  0.00  0.00     0.033 H 
BRANCH  24  27
ATOM     27  CAP B69 d          10.287  60.621  38.773  0.00  0.00    -0.068 C 
ATOM     28  H4  B69 d           9.601  59.784  38.579  0.00  0.00     0.032 H 
ATOM     29  H5  B69 d          10.305  60.836  39.852  0.00  0.00     0.032 H 
BRANCH  27  30
ATOM     30  CAA B69 d           9.782  61.858  38.031  0.00  0.00    -0.077 C 
ATOM     31  H1  B69 d           8.771  62.109  38.382  0.00  0.00     0.027 H 
ATOM     32  H2  B69 d           9.754  61.651  36.950  0.00  0.00     0.027 H 
ATOM     33  H3  B69 d          10.458  62.704  38.224  0.00  0.00     0.027 H 
ENDBRANCH  27  30
ENDBRANCH  24  27
ENDBRANCH  21  24
ENDBRANCH  15  21
ENDBRANCH   1  11
BRANCH   6  34
ATOM     34  CAT B69 d          20.097  53.528  36.505  0.00  0.00    -0.041 C 
ATOM     35  H18 B69 d          20.801  53.670  37.338  0.00  0.00     0.040 H 
ATOM     36  H19 B69 d          20.526  53.954  35.586  0.00  0.00     0.040 H 
BRANCH  34  37
ATOM     37  CAR B69 d          19.868  52.030  36.297  0.00  0.00    -0.059 C 
ATOM     38  H20 B69 d          19.735  51.832  35.223  0.00  0.00     0.033 H 
ATOM     39  H21 B69 d          18.960  51.727  36.841  0.00  0.00     0.033 H 
BRANCH  37  40
ATOM     40  CAU B69 d          21.055  51.215  36.812  0.00  0.00    -0.034 C 
ATOM     41  H22 B69 d          20.802  50.147  36.747  0.00  0.00     0.036 H 
ATOM     42  H23 B69 d          21.238  51.486  37.863  0.00  0.00     0.036 H 
BRANCH  40  43
ATOM     43  CAZ B69 d          22.337  51.460  36.016  0.00  0.00     0.169 C 
ATOM     44  H24 B69 d          22.272  52.442  35.523  0.00  0.00     0.090 H 
BRANCH  43  45
ATOM     45  PBA B69 d          22.562  50.164  34.731  0.00  0.00     0.281 P 
ATOM     46  OAC B69 d          23.990  50.419  34.031  0.00  0.00    -0.639 OA
ATOM     47  OAD B69 d          22.675  48.767  35.523  0.00  0.00    -0.639 OA
ATOM     48  OAB B69 d          21.459  50.181  33.744  0.00  0.00    -0.639 OA
ENDBRANCH  43  45
BRANCH  43  49
ATOM     49  SBB B69 d          23.762  51.459  37.166  0.00  0.00     0.119 S 
ATOM     50  OAG B69 d          24.974  51.521  36.411  0.00  0.00    -0.594 OA
ATOM     51  OAF B69 d          23.738  50.203  37.984  0.00  0.00    -0.594 OA
ATOM     52  OAE B69 d          23.661  52.650  38.075  0.00  0.00    -0.594 OA
ENDBRANCH  43  49
ENDBRANCH  40  43
ENDBRANCH  37  40
ENDBRANCH  34  37
ENDBRANCH   6  34
TORSDOF 11
ENDMDL
