MODEL 1
REMARK VINA RESULT:      -9.6      0.000      0.000
REMARK  11 active torsions:
REMARK  status: ('A' for Active; 'I' for Inactive)
REMARK    1  A    between atoms: CAA_1  and  CAP_2 
REMARK    2  A    between atoms: CAP_2  and  CAQ_3 
REMARK    3  A    between atoms: CAQ_3  and  CAS_4 
REMARK    4  A    between atoms: CAS_4  and  CAV_5 
REMARK    5  A    between atoms: CAX_10  and  CAY_11 
REMARK    6  A    between atoms: CAW_16  and  CAT_17 
REMARK    7  A    between atoms: CAT_17  and  CAR_18 
REMARK    8  A    between atoms: CAR_18  and  CAU_19 
REMARK    9  A    between atoms: CAU_19  and  CAZ_20 
REMARK   10  A    between atoms: CAZ_20  and  PBA_21 
REMARK   11  A    between atoms: CAZ_20  and  SBB_25 
ROOT
ATOM      1  CAY B69 d          14.214  56.845  38.136  0.00  0.00    -0.026 A 
ATOM      2  CAO B69 d          14.722  56.344  39.331  0.00  0.00    -0.072 A 
ATOM      3  CAK B69 d          15.627  55.286  39.309  0.00  0.00    -0.076 A 
ATOM      4  CAN B69 d          14.597  56.271  36.930  0.00  0.00    -0.072 A 
ATOM      5  CAJ B69 d          15.502  55.215  36.909  0.00  0.00    -0.076 A 
ATOM      6  CAW B69 d          16.022  54.724  38.101  0.00  0.00    -0.058 A 
ATOM      7  H14 B69 d          14.415  56.777  40.276  0.00  0.00     0.084 H 
ATOM      8  H15 B69 d          16.024  54.897  40.240  0.00  0.00     0.084 H 
ATOM      9  H16 B69 d          14.187  56.649  36.000  0.00  0.00     0.084 H 
ATOM     10  H17 B69 d          15.801  54.775  35.964  0.00  0.00     0.084 H 
ENDROOT
BRANCH   1  11
ATOM     11  CAX B69 d          13.421  57.987  38.144  0.00  0.00    -0.026 A 
ATOM     12  CAM B69 d          12.529  58.256  37.111  0.00  0.00    -0.072 A 
ATOM     13  CAI B69 d          11.813  59.448  37.102  0.00  0.00    -0.076 A 
ATOM     14  H11 B69 d          12.393  57.536  36.313  0.00  0.00     0.084 H 
ATOM     15  CAV B69 d          11.971  60.374  38.128  0.00  0.00    -0.058 A 
ATOM     16  H10 B69 d          11.126  59.657  36.289  0.00  0.00     0.084 H 
ATOM     17  CAH B69 d          12.873  60.112  39.151  0.00  0.00    -0.076 A 
ATOM     18  CAL B69 d          13.592  58.921  39.160  0.00  0.00    -0.072 A 
ATOM     19  H12 B69 d          13.019  60.837  39.943  0.00  0.00     0.084 H 
ATOM     20  H13 B69 d          14.290  58.719  39.965  0.00  0.00     0.084 H 
BRANCH  15  21
ATOM     21  CAS B69 d          10.979  61.529  38.287  0.00  0.00    -0.041 C 
ATOM     22  H8  B69 d          10.744  61.626  39.357  0.00  0.00     0.040 H 
ATOM     23  H9  B69 d          11.472  62.447  37.936  0.00  0.00     0.040 H 
BRANCH  21  24
ATOM     24  CAQ B69 d           9.657  61.388  37.529  0.00  0.00    -0.062 C 
ATOM     25  H6  B69 d           9.357  62.363  37.117  0.00  0.00     0.033 H 
ATOM     26  H7  B69 d           9.772  60.663  36.710  0.00  0.00     0.033 H 
BRANCH  24  27
ATOM     27  CAP B69 d           8.596  60.893  38.518  0.00  0.00    -0.068 C 
ATOM     28  H4  B69 d           8.896  61.184  39.535  0.00  0.00     0.032 H 
ATOM     29  H5  B69 d           7.633  61.364  38.272  0.00  0.00     0.032 H 
BRANCH  27  30
ATOM     30  CAA B69 d           8.431  59.374  38.466  0.00  0.00    -0.077 C 
ATOM     31  H1  B69 d           9.417  58.895  38.556  0.00  0.00     0.027 H 
ATOM     32  H2  B69 d           7.970  59.088  37.509  0.00  0.00     0.027 H 
ATOM     33  H3  B69 d           7.787  59.046  39.295  0.00  0.00     0.027 H 
ENDBRANCH  27  30
ENDBRANCH  24  27
ENDBRANCH  21  24
ENDBRANCH  15  21
ENDBRANCH   1  11
BRANCH   6  34
ATOM     34  CAT B69 d          17.056  53.592  38.096  0.00  0.00    -0.041 C 
ATOM     35  H18 B69 d          16.805  52.875  38.892  0.00  0.00     0.040 H 
ATOM     36  H19 B69 d          18.052  54.018  38.286  0.00  0.00     0.040 H 
BRANCH  34  37
ATOM     37  CAR B69 d          17.076  52.858  36.754  0.00  0.00    -0.059 C 
ATOM     38  H20 B69 d          16.322  53.304  36.089  0.00  0.00     0.033 H 
ATOM     39  H21 B69 d          16.837  51.798  36.921  0.00  0.00     0.033 H 
BRANCH  37  40
ATOM     40  CAU B69 d          18.451  52.962  36.091  0.00  0.00    -0.034 C 
ATOM     41  H22 B69 d          18.647  54.018  35.854  0.00  0.00     0.036 H 
ATOM     42  H23 B69 d          18.437  52.374  35.160  0.00  0.00     0.036 H 
BRANCH  40  43
ATOM     43  CAZ B69 d          19.583  52.444  36.978  0.00  0.00     0.169 C 
ATOM     44  H24 B69 d          19.161  52.102  37.935  0.00  0.00     0.090 H 
BRANCH  43  45
ATOM     45  PBA B69 d          20.808  53.774  37.311  0.00  0.00     0.281 P 
ATOM     46  OAC B69 d          20.777  54.784  36.057  0.00  0.00    -0.639 OA
ATOM     47  OAD B69 d          20.247  54.589  38.580  0.00  0.00    -0.639 OA
ATOM     48  OAB B69 d          22.163  53.220  37.534  0.00  0.00    -0.639 OA
ENDBRANCH  43  45
BRANCH  43  49
ATOM     49  SBB B69 d          20.397  51.034  36.142  0.00  0.00     0.119 S 
ATOM     50  OAG B69 d          19.397  50.127  35.670  0.00  0.00    -0.594 OA
ATOM     51  OAF B69 d          21.297  50.332  37.114  0.00  0.00    -0.594 OA
ATOM     52  OAE B69 d          21.210  51.548  34.990  0.00  0.00    -0.594 OA
ENDBRANCH  43  49
ENDBRANCH  40  43
ENDBRANCH  37  40
ENDBRANCH  34  37
ENDBRANCH   6  34
TORSDOF 11
ENDMDL
MODEL 2
REMARK VINA RESULT:      -9.1      2.041      3.217
REMARK  11 active torsions:
REMARK  status: ('A' for Active; 'I' for Inactive)
REMARK    1  A    between atoms: CAA_1  and  CAP_2 
REMARK    2  A    between atoms: CAP_2  and  CAQ_3 
REMARK    3  A    between atoms: CAQ_3  and  CAS_4 
REMARK    4  A    between atoms: CAS_4  and  CAV_5 
REMARK    5  A    between atoms: CAX_10  and  CAY_11 
REMARK    6  A    between atoms: CAW_16  and  CAT_17 
REMARK    7  A    between atoms: CAT_17  and  CAR_18 
REMARK    8  A    between atoms: CAR_18  and  CAU_19 
REMARK    9  A    between atoms: CAU_19  and  CAZ_20 
REMARK   10  A    between atoms: CAZ_20  and  PBA_21 
REMARK   11  A    between atoms: CAZ_20  and  SBB_25 
ROOT
ATOM      1  CAY B69 d          16.316  55.923  37.445  0.00  0.00    -0.026 A 
ATOM      2  CAO B69 d          16.944  55.045  38.323  0.00  0.00    -0.072 A 
ATOM      3  CAK B69 d          18.090  54.365  37.920  0.00  0.00    -0.076 A 
ATOM      4  CAN B69 d          16.824  56.098  36.164  0.00  0.00    -0.072 A 
ATOM      5  CAJ B69 d          17.969  55.419  35.762  0.00  0.00    -0.076 A 
ATOM      6  CAW B69 d          18.607  54.554  36.644  0.00  0.00    -0.058 A 
ATOM      7  H14 B69 d          16.543  54.893  39.319  0.00  0.00     0.084 H 
ATOM      8  H15 B69 d          18.580  53.683  38.605  0.00  0.00     0.084 H 
ATOM      9  H16 B69 d          16.324  56.767  35.473  0.00  0.00     0.084 H 
ATOM     10  H17 B69 d          18.365  55.564  34.763  0.00  0.00     0.084 H 
ENDROOT
BRANCH   1  11
ATOM     11  CAX B69 d          15.256  56.707  37.888  0.00  0.00    -0.026 A 
ATOM     12  CAM B69 d          15.270  57.297  39.147  0.00  0.00    -0.072 A 
ATOM     13  CAI B69 d          14.160  58.003  39.598  0.00  0.00    -0.076 A 
ATOM     14  H11 B69 d          16.147  57.206  39.778  0.00  0.00     0.084 H 
ATOM     15  CAV B69 d          13.034  58.137  38.792  0.00  0.00    -0.058 A 
ATOM     16  H10 B69 d          14.173  58.453  40.584  0.00  0.00     0.084 H 
ATOM     17  CAH B69 d          13.015  57.534  37.541  0.00  0.00    -0.076 A 
ATOM     18  CAL B69 d          14.123  56.826  37.090  0.00  0.00    -0.072 A 
ATOM     19  H12 B69 d          12.134  57.614  36.915  0.00  0.00     0.084 H 
ATOM     20  H13 B69 d          14.104  56.363  36.110  0.00  0.00     0.084 H 
BRANCH  15  21
ATOM     21  CAS B69 d          11.945  59.153  39.147  0.00  0.00    -0.041 C 
ATOM     22  H8  B69 d          11.641  58.971  40.188  0.00  0.00     0.040 H 
ATOM     23  H9  B69 d          12.384  60.158  39.064  0.00  0.00     0.040 H 
BRANCH  21  24
ATOM     24  CAQ B69 d          10.685  59.119  38.279  0.00  0.00    -0.062 C 
ATOM     25  H6  B69 d          10.722  58.254  37.601  0.00  0.00     0.033 H 
ATOM     26  H7  B69 d           9.793  59.046  38.919  0.00  0.00     0.033 H 
BRANCH  24  27
ATOM     27  CAP B69 d          10.638  60.416  37.464  0.00  0.00    -0.068 C 
ATOM     28  H4  B69 d          11.653  60.834  37.403  0.00  0.00     0.032 H 
ATOM     29  H5  B69 d          10.275  60.186  36.452  0.00  0.00     0.032 H 
BRANCH  27  30
ATOM     30  CAA B69 d           9.712  61.455  38.097  0.00  0.00    -0.077 C 
ATOM     31  H1  B69 d           9.279  62.089  37.309  0.00  0.00     0.027 H 
ATOM     32  H2  B69 d          10.286  62.080  38.797  0.00  0.00     0.027 H 
ATOM     33  H3  B69 d           8.904  60.944  38.641  0.00  0.00     0.027 H 
ENDBRANCH  27  30
ENDBRANCH  24  27
ENDBRANCH  21  24
ENDBRANCH  15  21
ENDBRANCH   1  11
BRANCH   6  34
ATOM     34  CAT B69 d          19.897  53.833  36.237  0.00  0.00    -0.041 C 
ATOM     35  H18 B69 d          20.719  54.563  36.198  0.00  0.00     0.040 H 
ATOM     36  H19 B69 d          19.757  53.385  35.242  0.00  0.00     0.040 H 
BRANCH  34  37
ATOM     37  CAR B69 d          20.260  52.729  37.232  0.00  0.00    -0.059 C 
ATOM     38  H20 B69 d          19.612  51.858  37.055  0.00  0.00     0.033 H 
ATOM     39  H21 B69 d          20.103  53.102  38.255  0.00  0.00     0.033 H 
BRANCH  37  40
ATOM     40  CAU B69 d          21.721  52.303  37.073  0.00  0.00    -0.034 C 
ATOM     41  H22 B69 d          22.279  52.622  37.966  0.00  0.00     0.036 H 
ATOM     42  H23 B69 d          22.137  52.800  36.183  0.00  0.00     0.036 H 
BRANCH  40  43
ATOM     43  CAZ B69 d          21.888  50.792  36.909  0.00  0.00     0.169 C 
ATOM     44  H24 B69 d          21.267  50.279  37.658  0.00  0.00     0.090 H 
BRANCH  43  45
ATOM     45  PBA B69 d          23.643  50.302  37.156  0.00  0.00     0.281 P 
ATOM     46  OAC B69 d          24.253  51.252  38.306  0.00  0.00    -0.639 OA
ATOM     47  OAD B69 d          23.609  48.809  37.755  0.00  0.00    -0.639 OA
ATOM     48  OAB B69 d          24.417  50.402  35.898  0.00  0.00    -0.639 OA
ENDBRANCH  43  45
BRANCH  43  49
ATOM     49  SBB B69 d          21.330  50.310  35.234  0.00  0.00     0.119 S 
ATOM     50  OAG B69 d          19.912  50.131  35.244  0.00  0.00    -0.594 OA
ATOM     51  OAF B69 d          21.999  49.028  34.837  0.00  0.00    -0.594 OA
ATOM     52  OAE B69 d          21.704  51.391  34.261  0.00  0.00    -0.594 OA
ENDBRANCH  43  49
ENDBRANCH  40  43
ENDBRANCH  37  40
ENDBRANCH  34  37
ENDBRANCH   6  34
TORSDOF 11
ENDMDL
MODEL 3
REMARK VINA RESULT:      -9.0      2.181      3.882
REMARK  11 active torsions:
REMARK  status: ('A' for Active; 'I' for Inactive)
REMARK    1  A    between atoms: CAA_1  and  CAP_2 
REMARK    2  A    between atoms: CAP_2  and  CAQ_3 
REMARK    3  A    between atoms: CAQ_3  and  CAS_4 
REMARK    4  A    between atoms: CAS_4  and  CAV_5 
REMARK    5  A    between atoms: CAX_10  and  CAY_11 
REMARK    6  A    between atoms: CAW_16  and  CAT_17 
REMARK    7  A    between atoms: CAT_17  and  CAR_18 
REMARK    8  A    between atoms: CAR_18  and  CAU_19 
REMARK    9  A    between atoms: CAU_19  and  CAZ_20 
REMARK   10  A    between atoms: CAZ_20  and  PBA_21 
REMARK   11  A    between atoms: CAZ_20  and  SBB_25 
ROOT
ATOM      1  CAY B69 d          16.709  55.665  37.563  0.00  0.00    -0.026 A 
ATOM      2  CAO B69 d          17.138  54.556  38.286  0.00  0.00    -0.072 A 
ATOM      3  CAK B69 d          18.317  53.910  37.926  0.00  0.00    -0.076 A 
ATOM      4  CAN B69 d          17.449  56.107  36.474  0.00  0.00    -0.072 A 
ATOM      5  CAJ B69 d          18.629  55.461  36.116  0.00  0.00    -0.076 A 
ATOM      6  CAW B69 d          19.067  54.363  36.848  0.00  0.00    -0.058 A 
ATOM      7  H14 B69 d          16.556  54.197  39.127  0.00  0.00     0.084 H 
ATOM      8  H15 B69 d          18.652  53.047  38.491  0.00  0.00     0.084 H 
ATOM      9  H16 B69 d          17.106  56.960  35.899  0.00  0.00     0.084 H 
ATOM     10  H17 B69 d          19.206  55.814  35.268  0.00  0.00     0.084 H 
ENDROOT
BRANCH   1  11
ATOM     11  CAX B69 d          15.609  56.395  38.001  0.00  0.00    -0.026 A 
ATOM     12  CAM B69 d          15.474  56.769  39.334  0.00  0.00    -0.072 A 
ATOM     13  CAI B69 d          14.323  57.423  39.761  0.00  0.00    -0.076 A 
ATOM     14  H11 B69 d          16.266  56.550  40.041  0.00  0.00     0.084 H 
ATOM     15  CAV B69 d          13.306  57.720  38.860  0.00  0.00    -0.058 A 
ATOM     16  H10 B69 d          14.219  57.703  40.803  0.00  0.00     0.084 H 
ATOM     17  CAH B69 d          13.435  57.333  37.532  0.00  0.00    -0.076 A 
ATOM     18  CAL B69 d          14.584  56.678  37.105  0.00  0.00    -0.072 A 
ATOM     19  H12 B69 d          12.639  57.542  36.828  0.00  0.00     0.084 H 
ATOM     20  H13 B69 d          14.682  56.384  36.066  0.00  0.00     0.084 H 
BRANCH  15  21
ATOM     21  CAS B69 d          12.191  58.695  39.247  0.00  0.00    -0.041 C 
ATOM     22  H8  B69 d          11.240  58.142  39.232  0.00  0.00     0.040 H 
ATOM     23  H9  B69 d          12.393  59.049  40.268  0.00  0.00     0.040 H 
BRANCH  21  24
ATOM     24  CAQ B69 d          12.030  59.924  38.349  0.00  0.00    -0.062 C 
ATOM     25  H6  B69 d          12.989  60.458  38.272  0.00  0.00     0.033 H 
ATOM     26  H7  B69 d          11.701  59.613  37.346  0.00  0.00     0.033 H 
BRANCH  24  27
ATOM     27  CAP B69 d          10.976  60.838  38.983  0.00  0.00    -0.068 C 
ATOM     28  H4  B69 d          10.426  60.269  39.747  0.00  0.00     0.032 H 
ATOM     29  H5  B69 d          11.484  61.690  39.457  0.00  0.00     0.032 H 
BRANCH  27  30
ATOM     30  CAA B69 d           9.982  61.367  37.949  0.00  0.00    -0.077 C 
ATOM     31  H1  B69 d           8.982  61.434  38.402  0.00  0.00     0.027 H 
ATOM     32  H2  B69 d           9.949  60.683  37.088  0.00  0.00     0.027 H 
ATOM     33  H3  B69 d          10.300  62.365  37.612  0.00  0.00     0.027 H 
ENDBRANCH  27  30
ENDBRANCH  24  27
ENDBRANCH  21  24
ENDBRANCH  15  21
ENDBRANCH   1  11
BRANCH   6  34
ATOM     34  CAT B69 d          20.387  53.667  36.499  0.00  0.00    -0.041 C 
ATOM     35  H18 B69 d          21.124  53.882  37.287  0.00  0.00     0.040 H 
ATOM     36  H19 B69 d          20.753  54.058  35.538  0.00  0.00     0.040 H 
BRANCH  34  37
ATOM     37  CAR B69 d          20.209  52.152  36.384  0.00  0.00    -0.059 C 
ATOM     38  H20 B69 d          20.189  51.872  35.321  0.00  0.00     0.033 H 
ATOM     39  H21 B69 d          19.259  51.866  36.857  0.00  0.00     0.033 H 
BRANCH  37  40
ATOM     40  CAU B69 d          21.356  51.410  37.074  0.00  0.00    -0.034 C 
ATOM     41  H22 B69 d          21.064  50.357  37.203  0.00  0.00     0.036 H 
ATOM     42  H23 B69 d          21.527  51.867  38.060  0.00  0.00     0.036 H 
BRANCH  40  43
ATOM     43  CAZ B69 d          22.661  51.459  36.280  0.00  0.00     0.169 C 
ATOM     44  H24 B69 d          22.605  52.276  35.545  0.00  0.00     0.090 H 
BRANCH  43  45
ATOM     45  PBA B69 d          22.936  49.875  35.385  0.00  0.00     0.281 P 
ATOM     46  OAC B69 d          24.232  50.069  34.447  0.00  0.00    -0.639 OA
ATOM     47  OAD B69 d          23.331  48.792  36.508  0.00  0.00    -0.639 OA
ATOM     48  OAB B69 d          21.746  49.483  34.597  0.00  0.00    -0.639 OA
ENDBRANCH  43  45
BRANCH  43  49
ATOM     49  SBB B69 d          24.047  51.778  37.431  0.00  0.00     0.119 S 
ATOM     50  OAG B69 d          25.240  52.009  36.678  0.00  0.00    -0.594 OA
ATOM     51  OAF B69 d          24.234  50.590  38.325  0.00  0.00    -0.594 OA
ATOM     52  OAE B69 d          23.726  52.985  38.265  0.00  0.00    -0.594 OA
ENDBRANCH  43  49
ENDBRANCH  40  43
ENDBRANCH  37  40
ENDBRANCH  34  37
ENDBRANCH   6  34
TORSDOF 11
ENDMDL
MODEL 4
REMARK VINA RESULT:      -8.9      1.405      2.590
REMARK  11 active torsions:
REMARK  status: ('A' for Active; 'I' for Inactive)
REMARK    1  A    between atoms: CAA_1  and  CAP_2 
REMARK    2  A    between atoms: CAP_2  and  CAQ_3 
REMARK    3  A    between atoms: CAQ_3  and  CAS_4 
REMARK    4  A    between atoms: CAS_4  and  CAV_5 
REMARK    5  A    between atoms: CAX_10  and  CAY_11 
REMARK    6  A    between atoms: CAW_16  and  CAT_17 
REMARK    7  A    between atoms: CAT_17  and  CAR_18 
REMARK    8  A    between atoms: CAR_18  and  CAU_19 
REMARK    9  A    between atoms: CAU_19  and  CAZ_20 
REMARK   10  A    between atoms: CAZ_20  and  PBA_21 
REMARK   11  A    between atoms: CAZ_20  and  SBB_25 
ROOT
ATOM      1  CAY B69 d          14.832  55.846  37.887  0.00  0.00    -0.026 A 
ATOM      2  CAO B69 d          15.295  55.116  38.977  0.00  0.00    -0.072 A 
ATOM      3  CAK B69 d          16.027  53.950  38.770  0.00  0.00    -0.076 A 
ATOM      4  CAN B69 d          15.086  55.395  36.597  0.00  0.00    -0.072 A 
ATOM      5  CAJ B69 d          15.820  54.231  36.391  0.00  0.00    -0.076 A 
ATOM      6  CAW B69 d          16.296  53.510  37.480  0.00  0.00    -0.058 A 
ATOM      7  H14 B69 d          15.086  55.455  39.986  0.00  0.00     0.084 H 
ATOM      8  H15 B69 d          16.389  53.383  39.620  0.00  0.00     0.084 H 
ATOM      9  H16 B69 d          14.711  55.954  35.748  0.00  0.00     0.084 H 
ATOM     10  H17 B69 d          16.020  53.887  35.382  0.00  0.00     0.084 H 
ENDROOT
BRANCH   1  11
ATOM     11  CAX B69 d          14.223  57.080  38.086  0.00  0.00    -0.026 A 
ATOM     12  CAM B69 d          13.268  57.567  37.199  0.00  0.00    -0.072 A 
ATOM     13  CAI B69 d          12.738  58.841  37.376  0.00  0.00    -0.076 A 
ATOM     14  H11 B69 d          12.937  56.953  36.370  0.00  0.00     0.084 H 
ATOM     15  CAV B69 d          13.147  59.633  38.444  0.00  0.00    -0.058 A 
ATOM     16  H10 B69 d          12.002  59.219  36.676  0.00  0.00     0.084 H 
ATOM     17  CAH B69 d          14.112  59.152  39.320  0.00  0.00    -0.076 A 
ATOM     18  CAL B69 d          14.644  57.879  39.143  0.00  0.00    -0.072 A 
ATOM     19  H12 B69 d          14.452  59.770  40.143  0.00  0.00     0.084 H 
ATOM     20  H13 B69 d          15.391  57.507  39.835  0.00  0.00     0.084 H 
BRANCH  15  21
ATOM     21  CAS B69 d          12.361  60.892  38.819  0.00  0.00    -0.041 C 
ATOM     22  H8  B69 d          12.950  61.447  39.563  0.00  0.00     0.040 H 
ATOM     23  H9  B69 d          12.249  61.501  37.911  0.00  0.00     0.040 H 
BRANCH  21  24
ATOM     24  CAQ B69 d          10.965  60.662  39.404  0.00  0.00    -0.062 C 
ATOM     25  H6  B69 d          10.665  59.615  39.255  0.00  0.00     0.033 H 
ATOM     26  H7  B69 d          10.968  60.894  40.480  0.00  0.00     0.033 H 
BRANCH  24  27
ATOM     27  CAP B69 d           9.989  61.592  38.674  0.00  0.00    -0.068 C 
ATOM     28  H4  B69 d           8.980  61.440  39.085  0.00  0.00     0.032 H 
ATOM     29  H5  B69 d          10.299  62.633  38.841  0.00  0.00     0.032 H 
BRANCH  27  30
ATOM     30  CAA B69 d           9.957  61.320  37.170  0.00  0.00    -0.077 C 
ATOM     31  H1  B69 d          10.969  61.436  36.755  0.00  0.00     0.027 H 
ATOM     32  H2  B69 d           9.277  62.034  36.683  0.00  0.00     0.027 H 
ATOM     33  H3  B69 d           9.603  60.294  36.990  0.00  0.00     0.027 H 
ENDBRANCH  27  30
ENDBRANCH  24  27
ENDBRANCH  21  24
ENDBRANCH  15  21
ENDBRANCH   1  11
BRANCH   6  34
ATOM     34  CAT B69 d          17.145  52.251  37.272  0.00  0.00    -0.041 C 
ATOM     35  H18 B69 d          16.490  51.425  36.956  0.00  0.00     0.040 H 
ATOM     36  H19 B69 d          17.633  51.989  38.223  0.00  0.00     0.040 H 
BRANCH  34  37
ATOM     37  CAR B69 d          18.220  52.469  36.206  0.00  0.00    -0.059 C 
ATOM     38  H20 B69 d          18.466  53.540  36.158  0.00  0.00     0.033 H 
ATOM     39  H21 B69 d          17.831  52.138  35.231  0.00  0.00     0.033 H 
BRANCH  37  40
ATOM     40  CAU B69 d          19.489  51.679  36.533  0.00  0.00    -0.034 C 
ATOM     41  H22 B69 d          19.466  50.732  35.974  0.00  0.00     0.036 H 
ATOM     42  H23 B69 d          19.502  51.468  37.613  0.00  0.00     0.036 H 
BRANCH  40  43
ATOM     43  CAZ B69 d          20.769  52.429  36.167  0.00  0.00     0.169 C 
ATOM     44  H24 B69 d          20.704  52.763  35.120  0.00  0.00     0.090 H 
BRANCH  43  45
ATOM     45  PBA B69 d          22.237  51.336  36.351  0.00  0.00     0.281 P 
ATOM     46  OAC B69 d          21.827  50.141  37.350  0.00  0.00    -0.639 OA
ATOM     47  OAD B69 d          22.482  50.672  34.905  0.00  0.00    -0.639 OA
ATOM     48  OAB B69 d          23.413  52.085  36.849  0.00  0.00    -0.639 OA
ENDBRANCH  43  45
BRANCH  43  49
ATOM     49  SBB B69 d          20.935  53.892  37.255  0.00  0.00     0.119 S 
ATOM     50  OAG B69 d          20.832  55.078  36.465  0.00  0.00    -0.594 OA
ATOM     51  OAF B69 d          22.268  53.853  37.940  0.00  0.00    -0.594 OA
ATOM     52  OAE B69 d          19.843  53.864  38.285  0.00  0.00    -0.594 OA
ENDBRANCH  43  49
ENDBRANCH  40  43
ENDBRANCH  37  40
ENDBRANCH  34  37
ENDBRANCH   6  34
TORSDOF 11
ENDMDL
MODEL 5
REMARK VINA RESULT:      -8.9      1.892      3.225
REMARK  11 active torsions:
REMARK  status: ('A' for Active; 'I' for Inactive)
REMARK    1  A    between atoms: CAA_1  and  CAP_2 
REMARK    2  A    between atoms: CAP_2  and  CAQ_3 
REMARK    3  A    between atoms: CAQ_3  and  CAS_4 
REMARK    4  A    between atoms: CAS_4  and  CAV_5 
REMARK    5  A    between atoms: CAX_10  and  CAY_11 
REMARK    6  A    between atoms: CAW_16  and  CAT_17 
REMARK    7  A    between atoms: CAT_17  and  CAR_18 
REMARK    8  A    between atoms: CAR_18  and  CAU_19 
REMARK    9  A    between atoms: CAU_19  and  CAZ_20 
REMARK   10  A    between atoms: CAZ_20  and  PBA_21 
REMARK   11  A    between atoms: CAZ_20  and  SBB_25 
ROOT
ATOM      1  CAY B69 d          16.124  55.287  37.379  0.00  0.00    -0.026 A 
ATOM      2  CAO B69 d          15.954  53.996  37.868  0.00  0.00    -0.072 A 
ATOM      3  CAK B69 d          16.864  52.999  37.525  0.00  0.00    -0.076 A 
ATOM      4  CAN B69 d          17.190  55.569  36.535  0.00  0.00    -0.072 A 
ATOM      5  CAJ B69 d          18.101  54.574  36.194  0.00  0.00    -0.076 A 
ATOM      6  CAW B69 d          17.940  53.287  36.695  0.00  0.00    -0.058 A 
ATOM      7  H14 B69 d          15.114  53.766  38.515  0.00  0.00     0.084 H 
ATOM      8  H15 B69 d          16.732  51.994  37.908  0.00  0.00     0.084 H 
ATOM      9  H16 B69 d          17.313  56.571  36.139  0.00  0.00     0.084 H 
ATOM     10  H17 B69 d          18.934  54.802  35.539  0.00  0.00     0.084 H 
ENDROOT
BRANCH   1  11
ATOM     11  CAX B69 d          15.300  56.313  37.829  0.00  0.00    -0.026 A 
ATOM     12  CAM B69 d          15.495  56.905  39.072  0.00  0.00    -0.072 A 
ATOM     13  CAI B69 d          14.603  57.868  39.533  0.00  0.00    -0.076 A 
ATOM     14  H11 B69 d          16.342  56.616  39.683  0.00  0.00     0.084 H 
ATOM     15  CAV B69 d          13.519  58.257  38.751  0.00  0.00    -0.058 A 
ATOM     16  H10 B69 d          14.754  58.320  40.506  0.00  0.00     0.084 H 
ATOM     17  CAH B69 d          13.317  57.653  37.517  0.00  0.00    -0.076 A 
ATOM     18  CAL B69 d          14.206  56.689  37.057  0.00  0.00    -0.072 A 
ATOM     19  H12 B69 d          12.463  57.935  36.911  0.00  0.00     0.084 H 
ATOM     20  H13 B69 d          14.047  56.227  36.089  0.00  0.00     0.084 H 
BRANCH  15  21
ATOM     21  CAS B69 d          12.721  59.514  39.107  0.00  0.00    -0.041 C 
ATOM     22  H8  B69 d          12.677  59.585  40.204  0.00  0.00     0.040 H 
ATOM     23  H9  B69 d          13.263  60.382  38.704  0.00  0.00     0.040 H 
BRANCH  21  24
ATOM     24  CAQ B69 d          11.286  59.571  38.578  0.00  0.00    -0.062 C 
ATOM     25  H6  B69 d          11.287  59.462  37.484  0.00  0.00     0.033 H 
ATOM     26  H7  B69 d          10.690  58.762  39.026  0.00  0.00     0.033 H 
BRANCH  24  27
ATOM     27  CAP B69 d          10.694  60.930  38.965  0.00  0.00    -0.068 C 
ATOM     28  H4  B69 d          10.085  60.806  39.872  0.00  0.00     0.032 H 
ATOM     29  H5  B69 d          11.516  61.631  39.169  0.00  0.00     0.032 H 
BRANCH  27  30
ATOM     30  CAA B69 d           9.816  61.508  37.854  0.00  0.00    -0.077 C 
ATOM     31  H1  B69 d           9.150  62.275  38.275  0.00  0.00     0.027 H 
ATOM     32  H2  B69 d           9.212  60.703  37.408  0.00  0.00     0.027 H 
ATOM     33  H3  B69 d          10.453  61.960  37.080  0.00  0.00     0.027 H 
ENDBRANCH  27  30
ENDBRANCH  24  27
ENDBRANCH  21  24
ENDBRANCH  15  21
ENDBRANCH   1  11
BRANCH   6  34
ATOM     34  CAT B69 d          18.958  52.189  36.369  0.00  0.00    -0.041 C 
ATOM     35  H18 B69 d          19.165  52.201  35.288  0.00  0.00     0.040 H 
ATOM     36  H19 B69 d          18.534  51.214  36.650  0.00  0.00     0.040 H 
BRANCH  34  37
ATOM     37  CAR B69 d          20.270  52.397  37.128  0.00  0.00    -0.059 C 
ATOM     38  H20 B69 d          20.296  51.720  37.994  0.00  0.00     0.033 H 
ATOM     39  H21 B69 d          20.322  53.439  37.475  0.00  0.00     0.033 H 
BRANCH  37  40
ATOM     40  CAU B69 d          21.476  52.108  36.232  0.00  0.00    -0.034 C 
ATOM     41  H22 B69 d          22.131  52.991  36.229  0.00  0.00     0.036 H 
ATOM     42  H23 B69 d          21.116  51.914  35.210  0.00  0.00     0.036 H 
BRANCH  40  43
ATOM     43  CAZ B69 d          22.290  50.900  36.699  0.00  0.00     0.169 C 
ATOM     44  H24 B69 d          21.689  50.316  37.412  0.00  0.00     0.090 H 
BRANCH  43  45
ATOM     45  PBA B69 d          23.838  51.443  37.531  0.00  0.00     0.281 P 
ATOM     46  OAC B69 d          24.934  51.713  36.382  0.00  0.00    -0.639 OA
ATOM     47  OAD B69 d          23.506  52.867  38.203  0.00  0.00    -0.639 OA
ATOM     48  OAB B69 d          24.309  50.438  38.510  0.00  0.00    -0.639 OA
ENDBRANCH  43  45
BRANCH  43  49
ATOM     49  SBB B69 d          22.688  49.854  35.250  0.00  0.00     0.119 S 
ATOM     50  OAG B69 d          23.307  50.661  34.245  0.00  0.00    -0.594 OA
ATOM     51  OAF B69 d          21.426  49.252  34.710  0.00  0.00    -0.594 OA
ATOM     52  OAE B69 d          23.623  48.759  35.676  0.00  0.00    -0.594 OA
ENDBRANCH  43  49
ENDBRANCH  40  43
ENDBRANCH  37  40
ENDBRANCH  34  37
ENDBRANCH   6  34
TORSDOF 11
ENDMDL
MODEL 6
REMARK VINA RESULT:      -8.7      1.841      3.797
REMARK  11 active torsions:
REMARK  status: ('A' for Active; 'I' for Inactive)
REMARK    1  A    between atoms: CAA_1  and  CAP_2 
REMARK    2  A    between atoms: CAP_2  and  CAQ_3 
REMARK    3  A    between atoms: CAQ_3  and  CAS_4 
REMARK    4  A    between atoms: CAS_4  and  CAV_5 
REMARK    5  A    between atoms: CAX_10  and  CAY_11 
REMARK    6  A    between atoms: CAW_16  and  CAT_17 
REMARK    7  A    between atoms: CAT_17  and  CAR_18 
REMARK    8  A    between atoms: CAR_18  and  CAU_19 
REMARK    9  A    between atoms: CAU_19  and  CAZ_20 
REMARK   10  A    between atoms: CAZ_20  and  PBA_21 
REMARK   11  A    between atoms: CAZ_20  and  SBB_25 
ROOT
ATOM      1  CAY B69 d          15.978  54.152  37.427  0.00  0.00    -0.026 A 
ATOM      2  CAO B69 d          15.956  53.020  38.236  0.00  0.00    -0.072 A 
ATOM      3  CAK B69 d          16.586  51.853  37.811  0.00  0.00    -0.076 A 
ATOM      4  CAN B69 d          16.611  54.105  36.191  0.00  0.00    -0.072 A 
ATOM      5  CAJ B69 d          17.242  52.939  35.768  0.00  0.00    -0.076 A 
ATOM      6  CAW B69 d          17.234  51.812  36.582  0.00  0.00    -0.058 A 
ATOM      7  H14 B69 d          15.451  53.046  39.194  0.00  0.00     0.084 H 
ATOM      8  H15 B69 d          16.571  50.972  38.442  0.00  0.00     0.084 H 
ATOM      9  H16 B69 d          16.612  54.981  35.553  0.00  0.00     0.084 H 
ATOM     10  H17 B69 d          17.739  52.910  34.805  0.00  0.00     0.084 H 
ENDROOT
BRANCH   1  11
ATOM     11  CAX B69 d          15.472  55.356  37.906  0.00  0.00    -0.026 A 
ATOM     12  CAM B69 d          15.788  55.818  39.180  0.00  0.00    -0.072 A 
ATOM     13  CAI B69 d          15.199  56.981  39.665  0.00  0.00    -0.076 A 
ATOM     14  H11 B69 d          16.493  55.271  39.794  0.00  0.00     0.084 H 
ATOM     15  CAV B69 d          14.302  57.698  38.879  0.00  0.00    -0.058 A 
ATOM     16  H10 B69 d          15.441  57.331  40.662  0.00  0.00     0.084 H 
ATOM     17  CAH B69 d          13.976  57.227  37.614  0.00  0.00    -0.076 A 
ATOM     18  CAL B69 d          14.562  56.064  37.129  0.00  0.00    -0.072 A 
ATOM     19  H12 B69 d          13.262  57.768  37.003  0.00  0.00     0.084 H 
ATOM     20  H13 B69 d          14.308  55.705  36.137  0.00  0.00     0.084 H 
BRANCH  15  21
ATOM     21  CAS B69 d          13.891  59.118  39.276  0.00  0.00    -0.041 C 
ATOM     22  H8  B69 d          13.361  59.059  40.238  0.00  0.00     0.040 H 
ATOM     23  H9  B69 d          14.808  59.711  39.399  0.00  0.00     0.040 H 
BRANCH  21  24
ATOM     24  CAQ B69 d          12.985  59.856  38.288  0.00  0.00    -0.062 C 
ATOM     25  H6  B69 d          13.354  60.881  38.137  0.00  0.00     0.033 H 
ATOM     26  H7  B69 d          12.973  59.325  37.324  0.00  0.00     0.033 H 
BRANCH  24  27
ATOM     27  CAP B69 d          11.572  59.894  38.879  0.00  0.00    -0.068 C 
ATOM     28  H4  B69 d          10.869  59.472  38.146  0.00  0.00     0.032 H 
ATOM     29  H5  B69 d          11.554  59.285  39.795  0.00  0.00     0.032 H 
BRANCH  27  30
ATOM     30  CAA B69 d          11.134  61.317  39.223  0.00  0.00    -0.077 C 
ATOM     31  H1  B69 d          11.955  61.840  39.737  0.00  0.00     0.027 H 
ATOM     32  H2  B69 d          10.254  61.281  39.883  0.00  0.00     0.027 H 
ATOM     33  H3  B69 d          10.878  61.856  38.299  0.00  0.00     0.027 H 
ENDBRANCH  27  30
ENDBRANCH  24  27
ENDBRANCH  21  24
ENDBRANCH  15  21
ENDBRANCH   1  11
BRANCH   6  34
ATOM     34  CAT B69 d          17.963  50.534  36.155  0.00  0.00    -0.041 C 
ATOM     35  H18 B69 d          17.272  49.904  35.575  0.00  0.00     0.040 H 
ATOM     36  H19 B69 d          18.288  49.990  37.054  0.00  0.00     0.040 H 
BRANCH  34  37
ATOM     37  CAR B69 d          19.189  50.849  35.294  0.00  0.00    -0.059 C 
ATOM     38  H20 B69 d          19.229  51.932  35.109  0.00  0.00     0.033 H 
ATOM     39  H21 B69 d          19.101  50.316  34.336  0.00  0.00     0.033 H 
BRANCH  37  40
ATOM     40  CAU B69 d          20.478  50.413  35.993  0.00  0.00    -0.034 C 
ATOM     41  H22 B69 d          20.814  49.464  35.549  0.00  0.00     0.036 H 
ATOM     42  H23 B69 d          20.265  50.263  37.062  0.00  0.00     0.036 H 
BRANCH  40  43
ATOM     43  CAZ B69 d          21.604  51.438  35.860  0.00  0.00     0.169 C 
ATOM     44  H24 B69 d          21.648  51.792  34.819  0.00  0.00     0.090 H 
BRANCH  43  45
ATOM     45  PBA B69 d          23.224  50.685  36.299  0.00  0.00     0.281 P 
ATOM     46  OAC B69 d          23.031  49.907  37.697  0.00  0.00    -0.639 OA
ATOM     47  OAD B69 d          23.513  49.566  35.179  0.00  0.00    -0.639 OA
ATOM     48  OAB B69 d          24.292  51.706  36.386  0.00  0.00    -0.639 OA
ENDBRANCH  43  45
BRANCH  43  49
ATOM     49  SBB B69 d          21.251  52.856  36.962  0.00  0.00     0.119 S 
ATOM     50  OAG B69 d          20.190  52.505  37.853  0.00  0.00    -0.594 OA
ATOM     51  OAF B69 d          20.847  54.040  36.136  0.00  0.00    -0.594 OA
ATOM     52  OAE B69 d          22.488  53.192  37.744  0.00  0.00    -0.594 OA
ENDBRANCH  43  49
ENDBRANCH  40  43
ENDBRANCH  37  40
ENDBRANCH  34  37
ENDBRANCH   6  34
TORSDOF 11
ENDMDL
MODEL 7
REMARK VINA RESULT:      -7.3      1.877      2.945
REMARK  11 active torsions:
REMARK  status: ('A' for Active; 'I' for Inactive)
REMARK    1  A    between atoms: CAA_1  and  CAP_2 
REMARK    2  A    between atoms: CAP_2  and  CAQ_3 
REMARK    3  A    between atoms: CAQ_3  and  CAS_4 
REMARK    4  A    between atoms: CAS_4  and  CAV_5 
REMARK    5  A    between atoms: CAX_10  and  CAY_11 
REMARK    6  A    between atoms: CAW_16  and  CAT_17 
REMARK    7  A    between atoms: CAT_17  and  CAR_18 
REMARK    8  A    between atoms: CAR_18  and  CAU_19 
REMARK    9  A    between atoms: CAU_19  and  CAZ_20 
REMARK   10  A    between atoms: CAZ_20  and  PBA_21 
REMARK   11  A    between atoms: CAZ_20  and  SBB_25 
ROOT
ATOM      1  CAY B69 d          16.309  55.969  37.739  0.00  0.00    -0.026 A 
ATOM      2  CAO B69 d          16.666  55.072  38.742  0.00  0.00    -0.072 A 
ATOM      3  CAK B69 d          17.951  54.538  38.769  0.00  0.00    -0.076 A 
ATOM      4  CAN B69 d          17.233  56.309  36.759  0.00  0.00    -0.072 A 
ATOM      5  CAJ B69 d          18.517  55.776  36.787  0.00  0.00    -0.076 A 
ATOM      6  CAW B69 d          18.879  54.893  37.797  0.00  0.00    -0.058 A 
ATOM      7  H14 B69 d          15.944  54.791  39.501  0.00  0.00     0.084 H 
ATOM      8  H15 B69 d          18.228  53.841  39.551  0.00  0.00     0.084 H 
ATOM      9  H16 B69 d          16.950  56.993  35.967  0.00  0.00     0.084 H 
ATOM     10  H17 B69 d          19.236  56.050  36.022  0.00  0.00     0.084 H 
ENDROOT
BRANCH   1  11
ATOM     11  CAX B69 d          15.076  56.609  37.788  0.00  0.00    -0.026 A 
ATOM     12  CAM B69 d          14.140  56.454  36.771  0.00  0.00    -0.072 A 
ATOM     13  CAI B69 d          12.951  57.175  36.802  0.00  0.00    -0.076 A 
ATOM     14  H11 B69 d          14.338  55.772  35.953  0.00  0.00     0.084 H 
ATOM     15  CAV B69 d          12.681  58.044  37.854  0.00  0.00    -0.058 A 
ATOM     16  H10 B69 d          12.229  57.057  36.002  0.00  0.00     0.084 H 
ATOM     17  CAH B69 d          13.623  58.210  38.862  0.00  0.00    -0.076 A 
ATOM     18  CAL B69 d          14.813  57.492  38.830  0.00  0.00    -0.072 A 
ATOM     19  H12 B69 d          13.430  58.901  39.674  0.00  0.00     0.084 H 
ATOM     20  H13 B69 d          15.541  57.621  39.623  0.00  0.00     0.084 H 
BRANCH  15  21
ATOM     21  CAS B69 d          11.268  58.600  38.056  0.00  0.00    -0.041 C 
ATOM     22  H8  B69 d          10.559  57.769  37.926  0.00  0.00     0.040 H 
ATOM     23  H9  B69 d          11.201  58.982  39.084  0.00  0.00     0.040 H 
BRANCH  21  24
ATOM     24  CAQ B69 d          10.848  59.726  37.109  0.00  0.00    -0.062 C 
ATOM     25  H6  B69 d          11.693  60.410  36.943  0.00  0.00     0.033 H 
ATOM     26  H7  B69 d          10.523  59.303  36.146  0.00  0.00     0.033 H 
BRANCH  24  27
ATOM     27  CAP B69 d           9.687  60.484  37.763  0.00  0.00    -0.068 C 
ATOM     28  H4  B69 d           9.058  60.919  36.973  0.00  0.00     0.032 H 
ATOM     29  H5  B69 d           9.091  59.776  38.357  0.00  0.00     0.032 H 
BRANCH  27  30
ATOM     30  CAA B69 d          10.180  61.605  38.678  0.00  0.00    -0.077 C 
ATOM     31  H1  B69 d          10.452  61.186  39.658  0.00  0.00     0.027 H 
ATOM     32  H2  B69 d           9.382  62.351  38.806  0.00  0.00     0.027 H 
ATOM     33  H3  B69 d          11.062  62.086  38.228  0.00  0.00     0.027 H 
ENDBRANCH  27  30
ENDBRANCH  24  27
ENDBRANCH  21  24
ENDBRANCH  15  21
ENDBRANCH   1  11
BRANCH   6  34
ATOM     34  CAT B69 d          20.304  54.331  37.872  0.00  0.00    -0.041 C 
ATOM     35  H18 B69 d          20.540  54.092  38.920  0.00  0.00     0.040 H 
ATOM     36  H19 B69 d          21.007  55.092  37.502  0.00  0.00     0.040 H 
BRANCH  34  37
ATOM     37  CAR B69 d          20.452  53.064  37.028  0.00  0.00    -0.059 C 
ATOM     38  H20 B69 d          20.142  52.195  37.627  0.00  0.00     0.033 H 
ATOM     39  H21 B69 d          21.506  52.950  36.735  0.00  0.00     0.033 H 
BRANCH  37  40
ATOM     40  CAU B69 d          19.586  53.137  35.769  0.00  0.00    -0.034 C 
ATOM     41  H22 B69 d          20.219  53.450  34.926  0.00  0.00     0.036 H 
ATOM     42  H23 B69 d          18.794  53.883  35.930  0.00  0.00     0.036 H 
BRANCH  40  43
ATOM     43  CAZ B69 d          18.933  51.800  35.416  0.00  0.00     0.169 C 
ATOM     44  H24 B69 d          18.381  51.908  34.471  0.00  0.00     0.090 H 
BRANCH  43  45
ATOM     45  PBA B69 d          17.759  51.284  36.735  0.00  0.00     0.281 P 
ATOM     46  OAC B69 d          16.443  52.205  36.597  0.00  0.00    -0.639 OA
ATOM     47  OAD B69 d          17.315  49.781  36.372  0.00  0.00    -0.639 OA
ATOM     48  OAB B69 d          18.367  51.399  38.079  0.00  0.00    -0.639 OA
ENDBRANCH  43  45
BRANCH  43  49
ATOM     49  SBB B69 d          20.240  50.535  35.208  0.00  0.00     0.119 S 
ATOM     50  OAG B69 d          21.357  51.121  34.535  0.00  0.00    -0.594 OA
ATOM     51  OAF B69 d          19.702  49.394  34.399  0.00  0.00    -0.594 OA
ATOM     52  OAE B69 d          20.660  50.035  36.560  0.00  0.00    -0.594 OA
ENDBRANCH  43  49
ENDBRANCH  40  43
ENDBRANCH  37  40
ENDBRANCH  34  37
ENDBRANCH   6  34
TORSDOF 11
ENDMDL
MODEL 8
REMARK VINA RESULT:      -7.1      5.688     10.590
REMARK  11 active torsions:
REMARK  status: ('A' for Active; 'I' for Inactive)
REMARK    1  A    between atoms: CAA_1  and  CAP_2 
REMARK    2  A    between atoms: CAP_2  and  CAQ_3 
REMARK    3  A    between atoms: CAQ_3  and  CAS_4 
REMARK    4  A    between atoms: CAS_4  and  CAV_5 
REMARK    5  A    between atoms: CAX_10  and  CAY_11 
REMARK    6  A    between atoms: CAW_16  and  CAT_17 
REMARK    7  A    between atoms: CAT_17  and  CAR_18 
REMARK    8  A    between atoms: CAR_18  and  CAU_19 
REMARK    9  A    between atoms: CAU_19  and  CAZ_20 
REMARK   10  A    between atoms: CAZ_20  and  PBA_21 
REMARK   11  A    between atoms: CAZ_20  and  SBB_25 
ROOT
ATOM      1  CAY B69 d          17.667  53.801  37.379  0.00  0.00    -0.026 A 
ATOM      2  CAO B69 d          17.535  55.158  37.100  0.00  0.00    -0.072 A 
ATOM      3  CAK B69 d          16.618  55.925  37.814  0.00  0.00    -0.076 A 
ATOM      4  CAN B69 d          16.868  53.216  38.354  0.00  0.00    -0.072 A 
ATOM      5  CAJ B69 d          15.953  53.984  39.067  0.00  0.00    -0.076 A 
ATOM      6  CAW B69 d          15.832  55.343  38.800  0.00  0.00    -0.058 A 
ATOM      7  H14 B69 d          18.145  55.616  36.330  0.00  0.00     0.084 H 
ATOM      8  H15 B69 d          16.517  56.983  37.597  0.00  0.00     0.084 H 
ATOM      9  H16 B69 d          16.958  52.155  38.559  0.00  0.00     0.084 H 
ATOM     10  H17 B69 d          15.336  53.523  39.831  0.00  0.00     0.084 H 
ENDROOT
BRANCH   1  11
ATOM     11  CAX B69 d          18.675  53.062  36.769  0.00  0.00    -0.026 A 
ATOM     12  CAM B69 d          18.457  51.757  36.341  0.00  0.00    -0.072 A 
ATOM     13  CAI B69 d          19.506  51.012  35.813  0.00  0.00    -0.076 A 
ATOM     14  H11 B69 d          17.469  51.319  36.419  0.00  0.00     0.084 H 
ATOM     15  CAV B69 d          20.776  51.568  35.696  0.00  0.00    -0.058 A 
ATOM     16  H10 B69 d          19.333  49.992  35.490  0.00  0.00     0.084 H 
ATOM     17  CAH B69 d          20.997  52.866  36.138  0.00  0.00    -0.076 A 
ATOM     18  CAL B69 d          19.949  53.611  36.667  0.00  0.00    -0.072 A 
ATOM     19  H12 B69 d          21.987  53.300  36.070  0.00  0.00     0.084 H 
ATOM     20  H13 B69 d          20.126  54.626  37.004  0.00  0.00     0.084 H 
BRANCH  15  21
ATOM     21  CAS B69 d          21.848  50.877  34.848  0.00  0.00    -0.041 C 
ATOM     22  H8  B69 d          21.416  50.680  33.856  0.00  0.00     0.040 H 
ATOM     23  H9  B69 d          22.696  51.570  34.747  0.00  0.00     0.040 H 
BRANCH  21  24
ATOM     24  CAQ B69 d          22.387  49.553  35.394  0.00  0.00    -0.062 C 
ATOM     25  H6  B69 d          21.554  48.860  35.583  0.00  0.00     0.033 H 
ATOM     26  H7  B69 d          23.081  49.105  34.668  0.00  0.00     0.033 H 
BRANCH  24  27
ATOM     27  CAP B69 d          23.124  49.849  36.704  0.00  0.00    -0.068 C 
ATOM     28  H4  B69 d          23.029  50.921  36.931  0.00  0.00     0.032 H 
ATOM     29  H5  B69 d          22.663  49.261  37.512  0.00  0.00     0.032 H 
BRANCH  27  30
ATOM     30  CAA B69 d          24.608  49.492  36.618  0.00  0.00    -0.077 C 
ATOM     31  H1  B69 d          25.184  50.384  36.330  0.00  0.00     0.027 H 
ATOM     32  H2  B69 d          24.753  48.703  35.865  0.00  0.00     0.027 H 
ATOM     33  H3  B69 d          24.957  49.131  37.598  0.00  0.00     0.027 H 
ENDBRANCH  27  30
ENDBRANCH  24  27
ENDBRANCH  21  24
ENDBRANCH  15  21
ENDBRANCH   1  11
BRANCH   6  34
ATOM     34  CAT B69 d          14.864  56.215  39.608  0.00  0.00    -0.041 C 
ATOM     35  H18 B69 d          15.038  56.044  40.681  0.00  0.00     0.040 H 
ATOM     36  H19 B69 d          13.832  55.932  39.354  0.00  0.00     0.040 H 
BRANCH  34  37
ATOM     37  CAR B69 d          15.061  57.701  39.303  0.00  0.00    -0.059 C 
ATOM     38  H20 B69 d          15.355  57.816  38.250  0.00  0.00     0.033 H 
ATOM     39  H21 B69 d          15.856  58.098  39.952  0.00  0.00     0.033 H 
BRANCH  37  40
ATOM     40  CAU B69 d          13.773  58.489  39.551  0.00  0.00    -0.034 C 
ATOM     41  H22 B69 d          13.973  59.257  40.312  0.00  0.00     0.036 H 
ATOM     42  H23 B69 d          13.003  57.796  39.922  0.00  0.00     0.036 H 
BRANCH  40  43
ATOM     43  CAZ B69 d          13.243  59.177  38.293  0.00  0.00     0.169 C 
ATOM     44  H24 B69 d          14.050  59.775  37.843  0.00  0.00     0.090 H 
BRANCH  43  45
ATOM     45  PBA B69 d          11.838  60.290  38.704  0.00  0.00     0.281 P 
ATOM     46  OAC B69 d          10.950  59.552  39.827  0.00  0.00    -0.639 OA
ATOM     47  OAD B69 d          12.487  61.588  39.401  0.00  0.00    -0.639 OA
ATOM     48  OAB B69 d          11.036  60.619  37.503  0.00  0.00    -0.639 OA
ENDBRANCH  43  45
BRANCH  43  49
ATOM     49  SBB B69 d          12.704  57.900  37.098  0.00  0.00     0.119 S 
ATOM     50  OAG B69 d          11.944  56.904  37.786  0.00  0.00    -0.594 OA
ATOM     51  OAF B69 d          13.910  57.270  36.467  0.00  0.00    -0.594 OA
ATOM     52  OAE B69 d          11.863  58.544  36.034  0.00  0.00    -0.594 OA
ENDBRANCH  43  49
ENDBRANCH  40  43
ENDBRANCH  37  40
ENDBRANCH  34  37
ENDBRANCH   6  34
TORSDOF 11
ENDMDL
MODEL 9
REMARK VINA RESULT:      -6.8      6.126     10.734
REMARK  11 active torsions:
REMARK  status: ('A' for Active; 'I' for Inactive)
REMARK    1  A    between atoms: CAA_1  and  CAP_2 
REMARK    2  A    between atoms: CAP_2  and  CAQ_3 
REMARK    3  A    between atoms: CAQ_3  and  CAS_4 
REMARK    4  A    between atoms: CAS_4  and  CAV_5 
REMARK    5  A    between atoms: CAX_10  and  CAY_11 
REMARK    6  A    between atoms: CAW_16  and  CAT_17 
REMARK    7  A    between atoms: CAT_17  and  CAR_18 
REMARK    8  A    between atoms: CAR_18  and  CAU_19 
REMARK    9  A    between atoms: CAU_19  and  CAZ_20 
REMARK   10  A    between atoms: CAZ_20  and  PBA_21 
REMARK   11  A    between atoms: CAZ_20  and  SBB_25 
ROOT
ATOM      1  CAY B69 d          17.521  54.791  36.991  0.00  0.00    -0.026 A 
ATOM      2  CAO B69 d          16.606  54.625  38.026  0.00  0.00    -0.072 A 
ATOM      3  CAK B69 d          15.372  55.266  37.969  0.00  0.00    -0.076 A 
ATOM      4  CAN B69 d          17.205  55.614  35.917  0.00  0.00    -0.072 A 
ATOM      5  CAJ B69 d          15.971  56.253  35.859  0.00  0.00    -0.076 A 
ATOM      6  CAW B69 d          15.050  56.075  36.886  0.00  0.00    -0.058 A 
ATOM      7  H14 B69 d          16.854  53.997  38.874  0.00  0.00     0.084 H 
ATOM      8  H15 B69 d          14.659  55.135  38.775  0.00  0.00     0.084 H 
ATOM      9  H16 B69 d          17.925  55.758  35.119  0.00  0.00     0.084 H 
ATOM     10  H17 B69 d          15.728  56.889  35.016  0.00  0.00     0.084 H 
ENDROOT
BRANCH   1  11
ATOM     11  CAX B69 d          18.695  54.045  36.976  0.00  0.00    -0.026 A 
ATOM     12  CAM B69 d          18.717  52.740  36.496  0.00  0.00    -0.072 A 
ATOM     13  CAI B69 d          19.884  51.988  36.574  0.00  0.00    -0.076 A 
ATOM     14  H11 B69 d          17.823  52.308  36.062  0.00  0.00     0.084 H 
ATOM     15  CAV B69 d          21.041  52.537  37.119  0.00  0.00    -0.058 A 
ATOM     16  H10 B69 d          19.892  50.968  36.208  0.00  0.00     0.084 H 
ATOM     17  CAH B69 d          21.014  53.835  37.611  0.00  0.00    -0.076 A 
ATOM     18  CAL B69 d          19.847  54.587  37.536  0.00  0.00    -0.072 A 
ATOM     19  H12 B69 d          21.905  54.263  38.056  0.00  0.00     0.084 H 
ATOM     20  H13 B69 d          19.834  55.602  37.916  0.00  0.00     0.084 H 
BRANCH  15  21
ATOM     21  CAS B69 d          22.390  51.838  36.931  0.00  0.00    -0.041 C 
ATOM     22  H8  B69 d          22.888  52.294  36.063  0.00  0.00     0.040 H 
ATOM     23  H9  B69 d          22.991  52.018  37.835  0.00  0.00     0.040 H 
BRANCH  21  24
ATOM     24  CAQ B69 d          22.337  50.326  36.699  0.00  0.00    -0.062 C 
ATOM     25  H6  B69 d          22.991  49.814  37.421  0.00  0.00     0.033 H 
ATOM     26  H7  B69 d          21.305  49.966  36.820  0.00  0.00     0.033 H 
BRANCH  24  27
ATOM     27  CAP B69 d          22.822  50.050  35.272  0.00  0.00    -0.068 C 
ATOM     28  H4  B69 d          23.177  50.993  34.830  0.00  0.00     0.032 H 
ATOM     29  H5  B69 d          23.652  49.329  35.312  0.00  0.00     0.032 H 
BRANCH  27  30
ATOM     30  CAA B69 d          21.711  49.478  34.392  0.00  0.00    -0.077 C 
ATOM     31  H1  B69 d          21.973  48.452  34.091  0.00  0.00     0.027 H 
ATOM     32  H2  B69 d          21.594  50.104  33.495  0.00  0.00     0.027 H 
ATOM     33  H3  B69 d          20.767  49.464  34.955  0.00  0.00     0.027 H 
ENDBRANCH  27  30
ENDBRANCH  24  27
ENDBRANCH  21  24
ENDBRANCH  15  21
ENDBRANCH   1  11
BRANCH   6  34
ATOM     34  CAT B69 d          13.667  56.733  36.818  0.00  0.00    -0.041 C 
ATOM     35  H18 B69 d          12.932  55.988  36.479  0.00  0.00     0.040 H 
ATOM     36  H19 B69 d          13.703  57.566  36.101  0.00  0.00     0.040 H 
BRANCH  34  37
ATOM     37  CAR B69 d          13.236  57.271  38.183  0.00  0.00    -0.059 C 
ATOM     38  H20 B69 d          13.956  58.034  38.513  0.00  0.00     0.033 H 
ATOM     39  H21 B69 d          13.220  56.443  38.907  0.00  0.00     0.033 H 
BRANCH  37  40
ATOM     40  CAU B69 d          11.842  57.899  38.112  0.00  0.00    -0.034 C 
ATOM     41  H22 B69 d          11.115  57.187  38.530  0.00  0.00     0.036 H 
ATOM     42  H23 B69 d          11.599  58.095  37.057  0.00  0.00     0.036 H 
BRANCH  40  43
ATOM     43  CAZ B69 d          11.739  59.212  38.888  0.00  0.00     0.169 C 
ATOM     44  H24 B69 d          11.632  58.989  39.960  0.00  0.00     0.090 H 
BRANCH  43  45
ATOM     45  PBA B69 d          10.277  60.181  38.334  0.00  0.00     0.281 P 
ATOM     46  OAC B69 d          10.409  60.385  36.741  0.00  0.00    -0.639 OA
ATOM     47  OAD B69 d           8.998  59.236  38.580  0.00  0.00    -0.639 OA
ATOM     48  OAB B69 d          10.184  61.477  39.044  0.00  0.00    -0.639 OA
ENDBRANCH  43  45
BRANCH  43  49
ATOM     49  SBB B69 d          13.271  60.180  38.627  0.00  0.00     0.119 S 
ATOM     50  OAG B69 d          13.074  61.510  39.111  0.00  0.00    -0.594 OA
ATOM     51  OAF B69 d          13.591  60.217  37.162  0.00  0.00    -0.594 OA
ATOM     52  OAE B69 d          14.400  59.525  39.368  0.00  0.00    -0.594 OA
ENDBRANCH  43  49
ENDBRANCH  40  43
ENDBRANCH  37  40
ENDBRANCH  34  37
ENDBRANCH   6  34
TORSDOF 11
ENDMDL
MODEL 10
REMARK VINA RESULT:      -6.8      6.060     10.568
REMARK  11 active torsions:
REMARK  status: ('A' for Active; 'I' for Inactive)
REMARK    1  A    between atoms: CAA_1  and  CAP_2 
REMARK    2  A    between atoms: CAP_2  and  CAQ_3 
REMARK    3  A    between atoms: CAQ_3  and  CAS_4 
REMARK    4  A    between atoms: CAS_4  and  CAV_5 
REMARK    5  A    between atoms: CAX_10  and  CAY_11 
REMARK    6  A    between atoms: CAW_16  and  CAT_17 
REMARK    7  A    between atoms: CAT_17  and  CAR_18 
REMARK    8  A    between atoms: CAR_18  and  CAU_19 
REMARK    9  A    between atoms: CAU_19  and  CAZ_20 
REMARK   10  A    between atoms: CAZ_20  and  PBA_21 
REMARK   11  A    between atoms: CAZ_20  and  SBB_25 
ROOT
ATOM      1  CAY B69 d          17.058  54.939  37.763  0.00  0.00    -0.026 A 
ATOM      2  CAO B69 d          16.650  56.120  37.151  0.00  0.00    -0.072 A 
ATOM      3  CAK B69 d          15.662  56.901  37.744  0.00  0.00    -0.076 A 
ATOM      4  CAN B69 d          16.462  54.536  38.952  0.00  0.00    -0.072 A 
ATOM      5  CAJ B69 d          15.477  55.318  39.545  0.00  0.00    -0.076 A 
ATOM      6  CAW B69 d          15.079  56.507  38.942  0.00  0.00    -0.058 A 
ATOM      7  H14 B69 d          17.100  56.431  36.215  0.00  0.00     0.084 H 
ATOM      8  H15 B69 d          15.346  57.822  37.268  0.00  0.00     0.084 H 
ATOM      9  H16 B69 d          16.767  53.607  39.420  0.00  0.00     0.084 H 
ATOM     10  H17 B69 d          15.019  55.002  40.476  0.00  0.00     0.084 H 
ENDROOT
BRANCH   1  11
ATOM     11  CAX B69 d          18.138  54.228  37.249  0.00  0.00    -0.026 A 
ATOM     12  CAM B69 d          18.194  52.841  37.329  0.00  0.00    -0.072 A 
ATOM     13  CAI B69 d          19.324  52.163  36.885  0.00  0.00    -0.076 A 
ATOM     14  H11 B69 d          17.357  52.288  37.737  0.00  0.00     0.084 H 
ATOM     15  CAV B69 d          20.401  52.862  36.347  0.00  0.00    -0.058 A 
ATOM     16  H10 B69 d          19.367  51.082  36.958  0.00  0.00     0.084 H 
ATOM     17  CAH B69 d          20.350  54.249  36.283  0.00  0.00    -0.076 A 
ATOM     18  CAL B69 d          19.221  54.928  36.728  0.00  0.00    -0.072 A 
ATOM     19  H12 B69 d          21.192  54.803  35.885  0.00  0.00     0.084 H 
ATOM     20  H13 B69 d          19.185  56.010  36.669  0.00  0.00     0.084 H 
BRANCH  15  21
ATOM     21  CAS B69 d          21.502  52.120  35.586  0.00  0.00    -0.041 C 
ATOM     22  H8  B69 d          21.558  52.548  34.574  0.00  0.00     0.040 H 
ATOM     23  H9  B69 d          22.452  52.297  36.111  0.00  0.00     0.040 H 
BRANCH  21  24
ATOM     24  CAQ B69 d          21.320  50.608  35.444  0.00  0.00    -0.062 C 
ATOM     25  H6  B69 d          20.373  50.300  35.913  0.00  0.00     0.033 H 
ATOM     26  H7  B69 d          21.309  50.331  34.380  0.00  0.00     0.033 H 
BRANCH  24  27
ATOM     27  CAP B69 d          22.495  49.922  36.149  0.00  0.00    -0.068 C 
ATOM     28  H4  B69 d          22.144  49.511  37.107  0.00  0.00     0.032 H 
ATOM     29  H5  B69 d          22.863  49.105  35.512  0.00  0.00     0.032 H 
BRANCH  27  30
ATOM     30  CAA B69 d          23.645  50.894  36.419  0.00  0.00    -0.077 C 
ATOM     31  H1  B69 d          24.030  50.732  37.437  0.00  0.00     0.027 H 
ATOM     32  H2  B69 d          23.281  51.928  36.325  0.00  0.00     0.027 H 
ATOM     33  H3  B69 d          24.450  50.721  35.691  0.00  0.00     0.027 H 
ENDBRANCH  27  30
ENDBRANCH  24  27
ENDBRANCH  21  24
ENDBRANCH  15  21
ENDBRANCH   1  11
BRANCH   6  34
ATOM     34  CAT B69 d          14.028  57.406  39.604  0.00  0.00    -0.041 C 
ATOM     35  H18 B69 d          13.920  57.113  40.659  0.00  0.00     0.040 H 
ATOM     36  H19 B69 d          13.068  57.273  39.085  0.00  0.00     0.040 H 
BRANCH  34  37
ATOM     37  CAR B69 d          14.430  58.880  39.537  0.00  0.00    -0.059 C 
ATOM     38  H20 B69 d          15.203  59.007  38.765  0.00  0.00     0.033 H 
ATOM     39  H21 B69 d          14.833  59.187  40.514  0.00  0.00     0.033 H 
BRANCH  37  40
ATOM     40  CAU B69 d          13.229  59.763  39.192  0.00  0.00    -0.034 C 
ATOM     41  H22 B69 d          13.553  60.530  38.473  0.00  0.00     0.036 H 
ATOM     42  H23 B69 d          12.874  60.249  40.113  0.00  0.00     0.036 H 
BRANCH  40  43
ATOM     43  CAZ B69 d          12.069  58.978  38.577  0.00  0.00     0.169 C 
ATOM     44  H24 B69 d          12.083  57.951  38.969  0.00  0.00     0.090 H 
BRANCH  43  45
ATOM     45  PBA B69 d          12.226  58.917  36.746  0.00  0.00     0.281 P 
ATOM     46  OAC B69 d          13.615  59.635  36.355  0.00  0.00    -0.639 OA
ATOM     47  OAD B69 d          12.382  57.362  36.364  0.00  0.00    -0.639 OA
ATOM     48  OAB B69 d          11.072  59.563  36.080  0.00  0.00    -0.639 OA
ENDBRANCH  43  45
BRANCH  43  49
ATOM     49  SBB B69 d          10.493  59.781  39.047  0.00  0.00     0.119 S 
ATOM     50  OAG B69 d          10.293  59.635  40.455  0.00  0.00    -0.594 OA
ATOM     51  OAF B69 d           9.364  59.130  38.305  0.00  0.00    -0.594 OA
ATOM     52  OAE B69 d          10.555  61.237  38.685  0.00  0.00    -0.594 OA
ENDBRANCH  43  49
ENDBRANCH  40  43
ENDBRANCH  37  40
ENDBRANCH  34  37
ENDBRANCH   6  34
TORSDOF 11
ENDMDL
