MODEL 1
REMARK VINA RESULT:      -8.9      0.000      0.000
REMARK  8 active torsions:
REMARK  status: ('A' for Active; 'I' for Inactive)
REMARK    1  A    between atoms: O6_1  and  C6_2 
REMARK    2  A    between atoms: C6_2  and  C5_3 
REMARK    3  A    between atoms: C4_4  and  O4_5 
REMARK    4  A    between atoms: C3_6  and  O3_7 
REMARK    5  A    between atoms: C2_8  and  O2_9 
REMARK    6  A    between atoms: C7_12  and  C9_15 
REMARK    7  A    between atoms: C9_15  and  C10_16 
REMARK    8  A    between atoms: C10_16  and  C14_17 
ROOT
ATOM      1  C5  PGI d          -2.365  10.423   8.652  0.00  0.00     0.065 C 
ATOM      2  C4  PGI d          -1.134  10.586   7.744  0.00  0.00     0.085 C 
ATOM      3  C3  PGI d          -0.209  11.653   8.364  0.00  0.00     0.093 C 
ATOM      4  C2  PGI d           0.380  11.187   9.688  0.00  0.00     0.119 C 
ATOM      5  N1  PGI d          -1.820   9.984   9.963  0.00  0.00    -0.332 N 
ATOM      6  C8  PGI d          -2.379   9.140  10.847  0.00  0.00     0.005 A 
ATOM      7  C7  PGI d          -1.465   8.997  11.880  0.00  0.00     0.052 A 
ATOM      8  N2  PGI d          -0.393   9.741  11.582  0.00  0.00    -0.235 NA
ATOM      9  C1  PGI d          -0.611  10.345  10.414  0.00  0.00     0.138 A 
ATOM     10  H4  PGI d          -2.857  11.400   8.770  0.00  0.00     0.080 H 
ATOM     11  H5  PGI d          -0.595   9.628   7.700  0.00  0.00     0.090 H 
ATOM     12  H7  PGI d          -0.820  12.550   8.541  0.00  0.00     0.091 H 
ATOM     13  H9  PGI d           1.250  10.551   9.473  0.00  0.00     0.099 H 
ATOM     14  H11 PGI d          -3.355   8.663  10.767  0.00  0.00     0.114 H 
ENDROOT
BRANCH   7  15
ATOM     15  C9  PGI d          -1.627   8.181  13.142  0.00  0.00    -0.020 C 
ATOM     16  H12 PGI d          -2.022   7.187  12.886  0.00  0.00     0.042 H 
ATOM     17  H13 PGI d          -2.327   8.691  13.820  0.00  0.00     0.042 H 
BRANCH  15  18
ATOM     18  C10 PGI d          -0.272   8.025  13.837  0.00  0.00    -0.036 C 
ATOM     19  H14 PGI d          -0.433   8.142  14.918  0.00  0.00     0.040 H 
ATOM     20  H15 PGI d           0.387   8.827  13.474  0.00  0.00     0.040 H 
BRANCH  18  21
ATOM     21  C14 PGI d           0.445   6.693  13.611  0.00  0.00    -0.058 A 
ATOM     22  C13 PGI d           1.112   6.434  12.402  0.00  0.00    -0.077 A 
ATOM     23  C12 PGI d           1.793   5.221  12.187  0.00  0.00    -0.082 A 
ATOM     24  H16 PGI d           1.103   7.183  11.619  0.00  0.00     0.084 H 
ATOM     25  C11 PGI d           1.835   4.246  13.189  0.00  0.00    -0.083 A 
ATOM     26  H17 PGI d           2.287   5.041  11.238  0.00  0.00     0.083 H 
ATOM     27  C16 PGI d           1.171   4.507  14.395  0.00  0.00    -0.082 A 
ATOM     28  H20 PGI d           2.367   3.314  13.037  0.00  0.00     0.083 H 
ATOM     29  C15 PGI d           0.488   5.716  14.615  0.00  0.00    -0.077 A 
ATOM     30  H19 PGI d           1.184   3.757  15.178  0.00  0.00     0.083 H 
ATOM     31  H18 PGI d          -0.006   5.893  15.563  0.00  0.00     0.084 H 
ENDBRANCH  18  21
ENDBRANCH  15  18
ENDBRANCH   7  15
BRANCH   1  32
ATOM     32  C6  PGI d          -3.401   9.444   8.109  0.00  0.00     0.038 C 
ATOM     33  H2  PGI d          -4.363   9.647   8.602  0.00  0.00     0.077 H 
ATOM     34  H3  PGI d          -3.501   9.609   7.026  0.00  0.00     0.077 H 
BRANCH  32  35
ATOM     35  O6  PGI d          -3.059   8.068   8.329  0.00  0.00    -0.399 OA
ATOM     36  H1  PGI d          -2.164   8.012   8.643  0.00  0.00     0.209 HD
ENDBRANCH  32  35
ENDBRANCH   1  32
BRANCH   4  37
ATOM     37  O2  PGI d           0.849  12.311  10.418  0.00  0.00    -0.385 OA
ATOM     38  H10 PGI d           1.628  12.069  10.905  0.00  0.00     0.210 HD
ENDBRANCH   4  37
BRANCH   2  39
ATOM     39  O4  PGI d          -1.513  10.954   6.413  0.00  0.00    -0.391 OA
ATOM     40  H6  PGI d          -2.432  10.755   6.279  0.00  0.00     0.210 HD
ENDBRANCH   2  39
BRANCH   3  41
ATOM     41  O3  PGI d           0.908  12.021   7.556  0.00  0.00    -0.390 OA
ATOM     42  H8  PGI d           0.723  11.812   6.648  0.00  0.00     0.210 HD
ENDBRANCH   3  41
TORSDOF 8
ENDMDL
MODEL 2
REMARK VINA RESULT:      -7.8      1.916      3.768
REMARK  8 active torsions:
REMARK  status: ('A' for Active; 'I' for Inactive)
REMARK    1  A    between atoms: O6_1  and  C6_2 
REMARK    2  A    between atoms: C6_2  and  C5_3 
REMARK    3  A    between atoms: C4_4  and  O4_5 
REMARK    4  A    between atoms: C3_6  and  O3_7 
REMARK    5  A    between atoms: C2_8  and  O2_9 
REMARK    6  A    between atoms: C7_12  and  C9_15 
REMARK    7  A    between atoms: C9_15  and  C10_16 
REMARK    8  A    between atoms: C10_16  and  C14_17 
ROOT
ATOM      1  C5  PGI d          -0.116  10.374   9.097  0.00  0.00     0.065 C 
ATOM      2  C4  PGI d          -1.546  10.941   9.127  0.00  0.00     0.085 C 
ATOM      3  C3  PGI d          -2.489   9.919   8.459  0.00  0.00     0.093 C 
ATOM      4  C2  PGI d          -2.594   8.636   9.271  0.00  0.00     0.119 C 
ATOM      5  N1  PGI d          -0.189   9.106   9.869  0.00  0.00    -0.332 N 
ATOM      6  C8  PGI d           0.753   8.569  10.662  0.00  0.00     0.005 A 
ATOM      7  C7  PGI d           0.196   7.423  11.207  0.00  0.00     0.052 A 
ATOM      8  N2  PGI d          -1.054   7.315  10.740  0.00  0.00    -0.235 NA
ATOM      9  C1  PGI d          -1.287   8.341   9.921  0.00  0.00     0.138 A 
ATOM     10  H4  PGI d           0.161  10.153   8.055  0.00  0.00     0.080 H 
ATOM     11  H5  PGI d          -1.852  11.079  10.174  0.00  0.00     0.090 H 
ATOM     12  H7  PGI d          -2.067   9.685   7.471  0.00  0.00     0.091 H 
ATOM     13  H9  PGI d          -3.328   8.796  10.074  0.00  0.00     0.099 H 
ATOM     14  H11 PGI d           1.754   8.958  10.841  0.00  0.00     0.114 H 
ENDROOT
BRANCH   7  15
ATOM     15  C9  PGI d           0.857   6.435  12.140  0.00  0.00    -0.020 C 
ATOM     16  H12 PGI d           1.948   6.561  12.091  0.00  0.00     0.042 H 
ATOM     17  H13 PGI d           0.592   5.411  11.837  0.00  0.00     0.042 H 
BRANCH  15  18
ATOM     18  C10 PGI d           0.382   6.678  13.575  0.00  0.00    -0.036 C 
ATOM     19  H14 PGI d           0.469   7.755  13.780  0.00  0.00     0.040 H 
ATOM     20  H15 PGI d           1.050   6.121  14.250  0.00  0.00     0.040 H 
BRANCH  18  21
ATOM     21  C14 PGI d          -1.054   6.255  13.885  0.00  0.00    -0.058 A 
ATOM     22  C13 PGI d          -2.045   7.218  14.137  0.00  0.00    -0.077 A 
ATOM     23  C12 PGI d          -3.376   6.847  14.404  0.00  0.00    -0.082 A 
ATOM     24  H16 PGI d          -1.780   8.269  14.124  0.00  0.00     0.084 H 
ATOM     25  C11 PGI d          -3.747   5.498  14.407  0.00  0.00    -0.083 A 
ATOM     26  H17 PGI d          -4.118   7.610  14.610  0.00  0.00     0.083 H 
ATOM     27  C16 PGI d          -2.757   4.539  14.154  0.00  0.00    -0.082 A 
ATOM     28  H20 PGI d          -4.772   5.202  14.600  0.00  0.00     0.083 H 
ATOM     29  C15 PGI d          -1.426   4.904  13.887  0.00  0.00    -0.077 A 
ATOM     30  H19 PGI d          -3.025   3.488  14.164  0.00  0.00     0.083 H 
ATOM     31  H18 PGI d          -0.685   4.139  13.683  0.00  0.00     0.084 H 
ENDBRANCH  18  21
ENDBRANCH  15  18
ENDBRANCH   7  15
BRANCH   1  32
ATOM     32  C6  PGI d           0.931  11.327   9.663  0.00  0.00     0.038 C 
ATOM     33  H2  PGI d           1.766  10.730  10.059  0.00  0.00     0.077 H 
ATOM     34  H3  PGI d           1.294  11.971   8.848  0.00  0.00     0.077 H 
BRANCH  32  35
ATOM     35  O6  PGI d           0.434  12.165  10.716  0.00  0.00    -0.399 OA
ATOM     36  H1  PGI d           1.025  12.897  10.843  0.00  0.00     0.209 HD
ENDBRANCH  32  35
ENDBRANCH   1  32
BRANCH   4  37
ATOM     37  O2  PGI d          -3.093   7.595   8.444  0.00  0.00    -0.385 OA
ATOM     38  H10 PGI d          -2.594   6.802   8.599  0.00  0.00     0.210 HD
ENDBRANCH   4  37
BRANCH   2  39
ATOM     39  O4  PGI d          -1.619  12.209   8.463  0.00  0.00    -0.391 OA
ATOM     40  H6  PGI d          -1.004  12.222   7.739  0.00  0.00     0.210 HD
ENDBRANCH   2  39
BRANCH   3  41
ATOM     41  O3  PGI d          -3.831  10.370   8.280  0.00  0.00    -0.390 OA
ATOM     42  H8  PGI d          -3.903  10.828   7.450  0.00  0.00     0.210 HD
ENDBRANCH   3  41
TORSDOF 8
ENDMDL
MODEL 3
REMARK VINA RESULT:      -7.0      1.146      2.871
REMARK  8 active torsions:
REMARK  status: ('A' for Active; 'I' for Inactive)
REMARK    1  A    between atoms: O6_1  and  C6_2 
REMARK    2  A    between atoms: C6_2  and  C5_3 
REMARK    3  A    between atoms: C4_4  and  O4_5 
REMARK    4  A    between atoms: C3_6  and  O3_7 
REMARK    5  A    between atoms: C2_8  and  O2_9 
REMARK    6  A    between atoms: C7_12  and  C9_15 
REMARK    7  A    between atoms: C9_15  and  C10_16 
REMARK    8  A    between atoms: C10_16  and  C14_17 
ROOT
ATOM      1  C5  PGI d           0.017  10.314   9.454  0.00  0.00     0.065 C 
ATOM      2  C4  PGI d          -1.032  10.997   8.560  0.00  0.00     0.085 C 
ATOM      3  C3  PGI d          -1.921   9.905   7.930  0.00  0.00     0.093 C 
ATOM      4  C2  PGI d          -2.756   9.186   8.980  0.00  0.00     0.119 C 
ATOM      5  N1  PGI d          -0.770   9.585  10.483  0.00  0.00    -0.332 N 
ATOM      6  C8  PGI d          -0.452   9.379  11.771  0.00  0.00     0.005 A 
ATOM      7  C7  PGI d          -1.526   8.708  12.335  0.00  0.00     0.052 A 
ATOM      8  N2  PGI d          -2.451   8.545  11.381  0.00  0.00    -0.235 NA
ATOM      9  C1  PGI d          -1.988   9.078  10.251  0.00  0.00     0.138 A 
ATOM     10  H4  PGI d           0.588   9.592   8.852  0.00  0.00     0.080 H 
ATOM     11  H5  PGI d          -1.658  11.653   9.183  0.00  0.00     0.090 H 
ATOM     12  H7  PGI d          -1.250   9.180   7.447  0.00  0.00     0.091 H 
ATOM     13  H9  PGI d          -3.646   9.796   9.188  0.00  0.00     0.099 H 
ATOM     14  H11 PGI d           0.467   9.680  12.273  0.00  0.00     0.114 H 
ENDROOT
BRANCH   7  15
ATOM     15  C9  PGI d          -1.654   8.210  13.757  0.00  0.00    -0.020 C 
ATOM     16  H12 PGI d          -2.568   8.623  14.207  0.00  0.00     0.042 H 
ATOM     17  H13 PGI d          -0.779   8.536  14.338  0.00  0.00     0.042 H 
BRANCH  15  18
ATOM     18  C10 PGI d          -1.728   6.681  13.767  0.00  0.00    -0.036 C 
ATOM     19  H14 PGI d          -2.570   6.381  13.124  0.00  0.00     0.040 H 
ATOM     20  H15 PGI d          -1.924   6.360  14.801  0.00  0.00     0.040 H 
BRANCH  18  21
ATOM     21  C14 PGI d          -0.479   5.947  13.277  0.00  0.00    -0.058 A 
ATOM     22  C13 PGI d          -0.430   5.401  11.984  0.00  0.00    -0.077 A 
ATOM     23  C12 PGI d           0.718   4.739  11.512  0.00  0.00    -0.082 A 
ATOM     24  H16 PGI d          -1.295   5.491  11.336  0.00  0.00     0.084 H 
ATOM     25  C11 PGI d           1.853   4.626  12.322  0.00  0.00    -0.083 A 
ATOM     26  H17 PGI d           0.724   4.314  10.514  0.00  0.00     0.083 H 
ATOM     27  C16 PGI d           1.803   5.173  13.611  0.00  0.00    -0.082 A 
ATOM     28  H20 PGI d           2.747   4.130  11.963  0.00  0.00     0.083 H 
ATOM     29  C15 PGI d           0.657   5.834  14.089  0.00  0.00    -0.077 A 
ATOM     30  H19 PGI d           2.669   5.084  14.257  0.00  0.00     0.083 H 
ATOM     31  H18 PGI d           0.653   6.257  15.087  0.00  0.00     0.084 H 
ENDBRANCH  18  21
ENDBRANCH  15  18
ENDBRANCH   7  15
BRANCH   1  32
ATOM     32  C6  PGI d           1.012  11.285  10.081  0.00  0.00     0.038 C 
ATOM     33  H2  PGI d           1.045  11.098  11.165  0.00  0.00     0.077 H 
ATOM     34  H3  PGI d           2.005  11.096   9.646  0.00  0.00     0.077 H 
BRANCH  32  35
ATOM     35  O6  PGI d           0.678  12.664   9.869  0.00  0.00    -0.399 OA
ATOM     36  H1  PGI d          -0.131  12.867  10.324  0.00  0.00     0.209 HD
ENDBRANCH  32  35
ENDBRANCH   1  32
BRANCH   4  37
ATOM     37  O2  PGI d          -3.209   7.947   8.453  0.00  0.00    -0.385 OA
ATOM     38  H10 PGI d          -3.914   7.613   8.995  0.00  0.00     0.210 HD
ENDBRANCH   4  37
BRANCH   2  39
ATOM     39  O4  PGI d          -0.411  11.795   7.545  0.00  0.00    -0.391 OA
ATOM     40  H6  PGI d          -0.902  12.601   7.433  0.00  0.00     0.210 HD
ENDBRANCH   2  39
BRANCH   3  41
ATOM     41  O3  PGI d          -2.851  10.377   6.956  0.00  0.00    -0.390 OA
ATOM     42  H8  PGI d          -2.426  10.418   6.108  0.00  0.00     0.210 HD
ENDBRANCH   3  41
TORSDOF 8
ENDMDL
MODEL 4
REMARK VINA RESULT:      -6.0      3.067      6.539
REMARK  8 active torsions:
REMARK  status: ('A' for Active; 'I' for Inactive)
REMARK    1  A    between atoms: O6_1  and  C6_2 
REMARK    2  A    between atoms: C6_2  and  C5_3 
REMARK    3  A    between atoms: C4_4  and  O4_5 
REMARK    4  A    between atoms: C3_6  and  O3_7 
REMARK    5  A    between atoms: C2_8  and  O2_9 
REMARK    6  A    between atoms: C7_12  and  C9_15 
REMARK    7  A    between atoms: C9_15  and  C10_16 
REMARK    8  A    between atoms: C10_16  and  C14_17 
ROOT
ATOM      1  C5  PGI d          -1.105   7.045  13.250  0.00  0.00     0.065 C 
ATOM      2  C4  PGI d           0.422   6.948  13.412  0.00  0.00     0.085 C 
ATOM      3  C3  PGI d           0.925   5.750  12.581  0.00  0.00     0.093 C 
ATOM      4  C2  PGI d           0.735   5.981  11.088  0.00  0.00     0.119 C 
ATOM      5  N1  PGI d          -1.326   7.253  11.795  0.00  0.00    -0.332 N 
ATOM      6  C8  PGI d          -2.282   7.987  11.204  0.00  0.00     0.005 A 
ATOM      7  C7  PGI d          -2.036   7.924   9.841  0.00  0.00     0.052 A 
ATOM      8  N2  PGI d          -0.942   7.173   9.659  0.00  0.00    -0.235 NA
ATOM      9  C1  PGI d          -0.512   6.761  10.852  0.00  0.00     0.138 A 
ATOM     10  H4  PGI d          -1.560   6.091  13.556  0.00  0.00     0.080 H 
ATOM     11  H5  PGI d           0.879   7.870  13.024  0.00  0.00     0.090 H 
ATOM     12  H7  PGI d           0.335   4.873  12.886  0.00  0.00     0.091 H 
ATOM     13  H9  PGI d           1.574   6.591  10.725  0.00  0.00     0.099 H 
ATOM     14  H11 PGI d          -3.091   8.525  11.696  0.00  0.00     0.114 H 
ENDROOT
BRANCH   7  15
ATOM     15  C9  PGI d          -2.846   8.552   8.730  0.00  0.00    -0.020 C 
ATOM     16  H12 PGI d          -3.876   8.170   8.770  0.00  0.00     0.042 H 
ATOM     17  H13 PGI d          -2.397   8.294   7.760  0.00  0.00     0.042 H 
BRANCH  15  18
ATOM     18  C10 PGI d          -2.861  10.074   8.895  0.00  0.00    -0.036 C 
ATOM     19  H14 PGI d          -3.343  10.303   9.857  0.00  0.00     0.040 H 
ATOM     20  H15 PGI d          -3.461  10.495   8.074  0.00  0.00     0.040 H 
BRANCH  18  21
ATOM     21  C14 PGI d          -1.496  10.762   8.878  0.00  0.00    -0.058 A 
ATOM     22  C13 PGI d          -0.793  10.987  10.073  0.00  0.00    -0.077 A 
ATOM     23  C12 PGI d           0.473  11.602  10.072  0.00  0.00    -0.082 A 
ATOM     24  H16 PGI d          -1.234  10.682  11.015  0.00  0.00     0.084 H 
ATOM     25  C11 PGI d           1.072  11.988   8.868  0.00  0.00    -0.083 A 
ATOM     26  H17 PGI d           0.988  11.778  11.011  0.00  0.00     0.083 H 
ATOM     27  C16 PGI d           0.369  11.761   7.677  0.00  0.00    -0.082 A 
ATOM     28  H20 PGI d           2.052  12.451   8.857  0.00  0.00     0.083 H 
ATOM     29  C15 PGI d          -0.896  11.148   7.672  0.00  0.00    -0.077 A 
ATOM     30  H19 PGI d           0.814  12.065   6.736  0.00  0.00     0.083 H 
ATOM     31  H18 PGI d          -1.410  10.975   6.733  0.00  0.00     0.084 H 
ENDBRANCH  18  21
ENDBRANCH  15  18
ENDBRANCH   7  15
BRANCH   1  32
ATOM     32  C6  PGI d          -1.740   8.151  14.087  0.00  0.00     0.038 C 
ATOM     33  H2  PGI d          -2.764   8.319  13.722  0.00  0.00     0.077 H 
ATOM     34  H3  PGI d          -1.774   7.819  15.135  0.00  0.00     0.077 H 
BRANCH  32  35
ATOM     35  O6  PGI d          -1.028   9.395  14.027  0.00  0.00    -0.399 OA
ATOM     36  H1  PGI d          -0.202   9.308  14.488  0.00  0.00     0.209 HD
ENDBRANCH  32  35
ENDBRANCH   1  32
BRANCH   4  37
ATOM     37  O2  PGI d           0.793   4.736  10.408  0.00  0.00    -0.385 OA
ATOM     38  H10 PGI d           1.242   4.100  10.952  0.00  0.00     0.210 HD
ENDBRANCH   4  37
BRANCH   2  39
ATOM     39  O4  PGI d           0.792   6.804  14.788  0.00  0.00    -0.391 OA
ATOM     40  H6  PGI d           1.203   5.956  14.917  0.00  0.00     0.210 HD
ENDBRANCH   2  39
BRANCH   3  41
ATOM     41  O3  PGI d           2.308   5.443  12.749  0.00  0.00    -0.390 OA
ATOM     42  H8  PGI d           2.424   4.500  12.750  0.00  0.00     0.210 HD
ENDBRANCH   3  41
TORSDOF 8
ENDMDL
