MODEL 1
REMARK VINA RESULT:      -8.4      0.000      0.000
REMARK  3 active torsions:
REMARK  status: ('A' for Active; 'I' for Inactive)
REMARK    1  A    between atoms: C13_2  and  C15_3 
REMARK       I    between atoms: C13_2  and  N12_12 
REMARK    2  A    between atoms: N12_12  and  C8_13 
REMARK    3  A    between atoms: C6_18  and  C2_19 
ROOT
ATOM      1  O14 MOL d          -8.834  55.245  13.382  0.00  0.00    -0.267 OA
ATOM      2  C13 MOL d          -8.891  55.396  12.151  0.00  0.00     0.256 C 
ATOM      3  N12 MOL d          -8.214  54.593  11.320  0.00  0.00    -0.323 N 
ATOM      4  H6  MOL d          -8.301  54.758  10.338  0.00  0.00     0.169 HD
ENDROOT
BRANCH   3   5
ATOM      5  C8  MOL d          -7.390  53.538  11.733  0.00  0.00     0.035 A 
ATOM      6  C7  MOL d          -6.038  53.811  11.915  0.00  0.00    -0.043 A 
ATOM      7  C6  MOL d          -5.196  52.786  12.354  0.00  0.00     0.014 A 
ATOM      8  H7  MOL d          -5.645  54.803  11.721  0.00  0.00     0.088 H 
ATOM      9  C11 MOL d          -5.654  51.506  12.618  0.00  0.00    -0.069 A 
ATOM     10  C10 MOL d          -7.007  51.256  12.399  0.00  0.00    -0.080 A 
ATOM     11  H10 MOL d          -4.987  50.732  12.980  0.00  0.00     0.085 H 
ATOM     12  C9  MOL d          -7.879  52.235  11.931  0.00  0.00    -0.057 A 
ATOM     13  H9  MOL d          -7.393  50.263  12.599  0.00  0.00     0.083 H 
ATOM     14  H8  MOL d          -8.917  51.998  11.724  0.00  0.00     0.086 H 
BRANCH   7  15
ATOM     15  C2  MOL d          -3.773  53.074  12.569  0.00  0.00     0.168 A 
ATOM     16  N3  MOL d          -2.811  52.973  11.635  0.00  0.00    -0.268 N 
ATOM     17  N4  MOL d          -1.623  53.272  12.267  0.00  0.00    -0.005 NA
ATOM     18  H11 MOL d          -2.937  52.722  10.644  0.00  0.00     0.185 HD
ATOM     19  N5  MOL d          -1.887  53.543  13.569  0.00  0.00     0.018 NA
ATOM     20  N1  MOL d          -3.222  53.439  13.741  0.00  0.00    -0.142 NA
ENDBRANCH   7  15
ENDBRANCH   3   5
BRANCH   2  21
ATOM     21  C15 MOL d          -9.697  56.521  11.573  0.00  0.00     0.033 A 
ATOM     22  C20 MOL d         -10.848  56.915  12.267  0.00  0.00    -0.054 A 
ATOM     23  C19 MOL d         -11.571  58.000  11.801  0.00  0.00     0.012 A 
ATOM     24  H1  MOL d         -11.167  56.380  13.154  0.00  0.00     0.086 H 
ATOM     25  C23 MOL d         -12.780  58.597  12.302  0.00  0.00     0.008 A 
ATOM     26  C18 MOL d         -11.161  58.672  10.660  0.00  0.00     0.088 A 
ATOM     27  N22 MOL d         -13.048  59.616  11.458  0.00  0.00    -0.288 N 
ATOM     28  H2  MOL d         -13.356  58.292  13.175  0.00  0.00     0.115 H 
ATOM     29  N21 MOL d         -12.071  59.663  10.461  0.00  0.00    -0.175 NA
ATOM     30  H3  MOL d         -13.849  60.259  11.537  0.00  0.00     0.188 HD
ATOM     31  C17 MOL d         -10.022  58.297   9.957  0.00  0.00    -0.052 A 
ATOM     32  C16 MOL d          -9.269  57.228  10.427  0.00  0.00    -0.065 A 
ATOM     33  H4  MOL d          -9.725  58.828   9.060  0.00  0.00     0.087 H 
ATOM     34  H5  MOL d          -8.359  56.938   9.917  0.00  0.00     0.085 H 
ENDBRANCH   2  21
TORSDOF 3
ENDMDL
MODEL 2
REMARK VINA RESULT:      -6.6      1.692      1.900
REMARK  3 active torsions:
REMARK  status: ('A' for Active; 'I' for Inactive)
REMARK    1  A    between atoms: C13_2  and  C15_3 
REMARK       I    between atoms: C13_2  and  N12_12 
REMARK    2  A    between atoms: N12_12  and  C8_13 
REMARK    3  A    between atoms: C6_18  and  C2_19 
ROOT
ATOM      1  O14 MOL d          -8.962  55.122   9.429  0.00  0.00    -0.267 OA
ATOM      2  C13 MOL d          -9.803  55.247  10.333  0.00  0.00     0.256 C 
ATOM      3  N12 MOL d          -9.743  54.503  11.446  0.00  0.00    -0.323 N 
ATOM      4  H6  MOL d         -10.444  54.651  12.144  0.00  0.00     0.169 HD
ENDROOT
BRANCH   3   5
ATOM      5  C8  MOL d          -8.766  53.533  11.699  0.00  0.00     0.035 A 
ATOM      6  C7  MOL d          -7.515  53.974  12.118  0.00  0.00    -0.043 A 
ATOM      7  C6  MOL d          -6.527  53.028  12.406  0.00  0.00     0.014 A 
ATOM      8  H7  MOL d          -7.310  55.034  12.220  0.00  0.00     0.088 H 
ATOM      9  C11 MOL d          -6.744  51.666  12.293  0.00  0.00    -0.069 A 
ATOM     10  C10 MOL d          -7.998  51.255  11.844  0.00  0.00    -0.080 A 
ATOM     11  H10 MOL d          -5.971  50.948  12.544  0.00  0.00     0.085 H 
ATOM     12  C9  MOL d          -9.004  52.160  11.514  0.00  0.00    -0.057 A 
ATOM     13  H9  MOL d          -8.197  50.194  11.749  0.00  0.00     0.083 H 
ATOM     14  H8  MOL d          -9.953  51.812  11.121  0.00  0.00     0.086 H 
BRANCH   7  15
ATOM     15  C2  MOL d          -5.212  53.487  12.869  0.00  0.00     0.168 A 
ATOM     16  N3  MOL d          -4.580  54.592  12.437  0.00  0.00    -0.268 N 
ATOM     17  N4  MOL d          -3.359  54.617  13.077  0.00  0.00    -0.005 NA
ATOM     18  H11 MOL d          -4.937  55.284  11.761  0.00  0.00     0.185 HD
ATOM     19  N5  MOL d          -3.275  53.527  13.878  0.00  0.00     0.018 NA
ATOM     20  N1  MOL d          -4.434  52.845  13.759  0.00  0.00    -0.142 NA
ENDBRANCH   7  15
ENDBRANCH   3   5
BRANCH   2  21
ATOM     21  C15 MOL d         -10.936  56.216  10.171  0.00  0.00     0.033 A 
ATOM     22  C20 MOL d         -11.125  57.167  11.181  0.00  0.00    -0.054 A 
ATOM     23  C19 MOL d         -12.114  58.122  11.024  0.00  0.00     0.012 A 
ATOM     24  H1  MOL d         -10.507  57.154  12.072  0.00  0.00     0.086 H 
ATOM     25  C23 MOL d         -12.527  59.187  11.899  0.00  0.00     0.008 A 
ATOM     26  C18 MOL d         -12.906  58.124   9.886  0.00  0.00     0.088 A 
ATOM     27  N22 MOL d         -13.540  59.803  11.252  0.00  0.00    -0.288 N 
ATOM     28  H2  MOL d         -12.112  59.441  12.873  0.00  0.00     0.115 H 
ATOM     29  N21 MOL d         -13.774  59.161  10.034  0.00  0.00    -0.175 NA
ATOM     30  H3  MOL d         -14.060  60.620  11.604  0.00  0.00     0.188 HD
ATOM     31  C17 MOL d         -12.734  57.190   8.871  0.00  0.00    -0.052 A 
ATOM     32  C16 MOL d         -11.729  56.241   9.000  0.00  0.00    -0.065 A 
ATOM     33  H4  MOL d         -13.373  57.201   7.995  0.00  0.00     0.087 H 
ATOM     34  H5  MOL d         -11.552  55.524   8.208  0.00  0.00     0.085 H 
ENDBRANCH   2  21
TORSDOF 3
ENDMDL
MODEL 3
REMARK VINA RESULT:      -6.4      1.744      2.244
REMARK  3 active torsions:
REMARK  status: ('A' for Active; 'I' for Inactive)
REMARK    1  A    between atoms: C13_2  and  C15_3 
REMARK       I    between atoms: C13_2  and  N12_12 
REMARK    2  A    between atoms: N12_12  and  C8_13 
REMARK    3  A    between atoms: C6_18  and  C2_19 
ROOT
ATOM      1  O14 MOL d          -8.009  56.336  11.812  0.00  0.00    -0.267 OA
ATOM      2  C13 MOL d          -9.017  55.659  11.556  0.00  0.00     0.256 C 
ATOM      3  N12 MOL d          -9.025  54.331  11.734  0.00  0.00    -0.323 N 
ATOM      4  H6  MOL d          -9.867  53.837  11.516  0.00  0.00     0.169 HD
ENDROOT
BRANCH   3   5
ATOM      5  C8  MOL d          -7.936  53.587  12.204  0.00  0.00     0.035 A 
ATOM      6  C7  MOL d          -6.950  53.240  11.286  0.00  0.00    -0.043 A 
ATOM      7  C6  MOL d          -5.836  52.522  11.730  0.00  0.00     0.014 A 
ATOM      8  H7  MOL d          -7.043  53.523  10.243  0.00  0.00     0.088 H 
ATOM      9  C11 MOL d          -5.673  52.142  13.051  0.00  0.00    -0.069 A 
ATOM     10  C10 MOL d          -6.690  52.479  13.942  0.00  0.00    -0.080 A 
ATOM     11  H10 MOL d          -4.790  51.606  13.379  0.00  0.00     0.085 H 
ATOM     12  C9  MOL d          -7.834  53.165  13.541  0.00  0.00    -0.057 A 
ATOM     13  H9  MOL d          -6.588  52.197  14.983  0.00  0.00     0.083 H 
ATOM     14  H8  MOL d          -8.631  53.371  14.246  0.00  0.00     0.086 H 
BRANCH   7  15
ATOM     15  C2  MOL d          -4.783  52.172  10.770  0.00  0.00     0.168 A 
ATOM     16  N3  MOL d          -3.468  52.122  11.045  0.00  0.00    -0.268 N 
ATOM     17  N4  MOL d          -2.834  51.817   9.859  0.00  0.00    -0.005 NA
ATOM     18  H11 MOL d          -3.022  52.279  11.961  0.00  0.00     0.185 HD
ATOM     19  N5  MOL d          -3.775  51.694   8.891  0.00  0.00     0.018 NA
ATOM     20  N1  MOL d          -4.979  51.895   9.468  0.00  0.00    -0.142 NA
ENDBRANCH   7  15
ENDBRANCH   3   5
BRANCH   2  21
ATOM     21  C15 MOL d         -10.239  56.322  10.997  0.00  0.00     0.033 A 
ATOM     22  C20 MOL d         -10.445  57.671  11.312  0.00  0.00    -0.054 A 
ATOM     23  C19 MOL d         -11.524  58.332  10.749  0.00  0.00     0.012 A 
ATOM     24  H1  MOL d          -9.771  58.189  11.984  0.00  0.00     0.086 H 
ATOM     25  C23 MOL d         -11.972  59.690  10.912  0.00  0.00     0.008 A 
ATOM     26  C18 MOL d         -12.386  57.659   9.897  0.00  0.00     0.088 A 
ATOM     27  N22 MOL d         -13.076  59.793  10.142  0.00  0.00    -0.288 N 
ATOM     28  H2  MOL d         -11.517  60.467  11.525  0.00  0.00     0.115 H 
ATOM     29  N21 MOL d         -13.331  58.565   9.528  0.00  0.00    -0.175 NA
ATOM     30  H3  MOL d         -13.642  60.645  10.026  0.00  0.00     0.188 HD
ATOM     31  C17 MOL d         -12.199  56.321   9.571  0.00  0.00    -0.052 A 
ATOM     32  C16 MOL d         -11.107  55.650  10.105  0.00  0.00    -0.065 A 
ATOM     33  H4  MOL d         -12.893  55.810   8.913  0.00  0.00     0.087 H 
ATOM     34  H5  MOL d         -10.920  54.617   9.840  0.00  0.00     0.085 H 
ENDBRANCH   2  21
TORSDOF 3
ENDMDL
MODEL 4
REMARK VINA RESULT:      -5.6      2.038      8.348
REMARK  3 active torsions:
REMARK  status: ('A' for Active; 'I' for Inactive)
REMARK    1  A    between atoms: C13_2  and  C15_3 
REMARK       I    between atoms: C13_2  and  N12_12 
REMARK    2  A    between atoms: N12_12  and  C8_13 
REMARK    3  A    between atoms: C6_18  and  C2_19 
ROOT
ATOM      1  O14 MOL d          -6.933  52.836   9.399  0.00  0.00    -0.267 OA
ATOM      2  C13 MOL d          -6.628  53.022  10.588  0.00  0.00     0.256 C 
ATOM      3  N12 MOL d          -7.499  53.559  11.453  0.00  0.00    -0.323 N 
ATOM      4  H6  MOL d          -7.201  53.681  12.399  0.00  0.00     0.169 HD
ENDROOT
BRANCH   3   5
ATOM      5  C8  MOL d          -8.800  53.960  11.122  0.00  0.00     0.035 A 
ATOM      6  C7  MOL d          -9.098  55.316  11.219  0.00  0.00    -0.043 A 
ATOM      7  C6  MOL d         -10.379  55.751  10.868  0.00  0.00     0.014 A 
ATOM      8  H7  MOL d          -8.349  56.022  11.559  0.00  0.00     0.088 H 
ATOM      9  C11 MOL d         -11.365  54.887  10.426  0.00  0.00    -0.069 A 
ATOM     10  C10 MOL d         -11.046  53.531  10.367  0.00  0.00    -0.080 A 
ATOM     11  H10 MOL d         -12.345  55.249  10.137  0.00  0.00     0.085 H 
ATOM     12  C9  MOL d          -9.794  53.045  10.736  0.00  0.00    -0.057 A 
ATOM     13  H9  MOL d         -11.798  52.832  10.022  0.00  0.00     0.083 H 
ATOM     14  H8  MOL d          -9.590  51.980  10.726  0.00  0.00     0.086 H 
BRANCH   7  15
ATOM     15  C2  MOL d         -10.692  57.183  10.948  0.00  0.00     0.168 A 
ATOM     16  N3  MOL d         -11.218  57.804  12.017  0.00  0.00    -0.268 N 
ATOM     17  N4  MOL d         -11.408  59.119  11.649  0.00  0.00    -0.005 NA
ATOM     18  H11 MOL d         -11.436  57.381  12.931  0.00  0.00     0.185 HD
ATOM     19  N5  MOL d         -10.999  59.266  10.365  0.00  0.00     0.018 NA
ATOM     20  N1  MOL d         -10.538  58.068   9.946  0.00  0.00    -0.142 NA
ENDBRANCH   7  15
ENDBRANCH   3   5
BRANCH   2  21
ATOM     21  C15 MOL d          -5.248  52.684  11.066  0.00  0.00     0.033 A 
ATOM     22  C20 MOL d          -4.650  53.555  11.985  0.00  0.00    -0.054 A 
ATOM     23  C19 MOL d          -3.408  53.231  12.503  0.00  0.00     0.012 A 
ATOM     24  H1  MOL d          -5.151  54.468  12.284  0.00  0.00     0.086 H 
ATOM     25  C23 MOL d          -2.572  53.943  13.434  0.00  0.00     0.008 A 
ATOM     26  C18 MOL d          -2.770  52.065  12.107  0.00  0.00     0.088 A 
ATOM     27  N22 MOL d          -1.471  53.176  13.578  0.00  0.00    -0.288 N 
ATOM     28  H2  MOL d          -2.784  54.895  13.917  0.00  0.00     0.115 H 
ATOM     29  N21 MOL d          -1.585  52.039  12.774  0.00  0.00    -0.175 NA
ATOM     30  H3  MOL d          -0.669  53.396  14.187  0.00  0.00     0.188 HD
ATOM     31  C17 MOL d          -3.347  51.186  11.197  0.00  0.00    -0.052 A 
ATOM     32  C16 MOL d          -4.605  51.483  10.688  0.00  0.00    -0.065 A 
ATOM     33  H4  MOL d          -2.826  50.287  10.890  0.00  0.00     0.087 H 
ATOM     34  H5  MOL d          -5.090  50.798  10.004  0.00  0.00     0.085 H 
ENDBRANCH   2  21
TORSDOF 3
ENDMDL
