MODEL 1
REMARK VINA RESULT:      -8.5      0.000      0.000
REMARK  13 active torsions:
REMARK  status: ('A' for Active; 'I' for Inactive)
REMARK    1  A    between atoms: CA_2  and  N_1 
REMARK    2  A    between atoms: P_3  and  CA_2 
REMARK    3  A    between atoms: CA_2  and  CB_6 
REMARK    4  A    between atoms: CM_13  and  P_3 
REMARK    5  A    between atoms: CB_6  and  CG_7 
REMARK    6  A    between atoms: CA_14  and  CM_13 
REMARK    7  A    between atoms: CA_14  and  CB_15 
REMARK    8  A    between atoms: C_22  and  CA_14 
REMARK    9  A    between atoms: CB_15  and  CG_16 
REMARK       I    between atoms: C_22  and  N_24 
REMARK   10  A    between atoms: N_24  and  CA_25 
REMARK   11  A    between atoms: CA_25  and  CB_28 
REMARK   12  A    between atoms: CA_25  and  C_26 
REMARK   13  A    between atoms: CB_28  and  CG_29 
ROOT
ATOM      1  CA  MOL d          36.443  41.788  -3.637  0.00  0.00     0.036 C 
ATOM      2  H14 MOL d          36.718  42.746  -4.103  0.00  0.00     0.056 H 
ENDROOT
BRANCH   1   3
ATOM      3  CM  MOL d          35.388  41.136  -4.552  0.00  0.00     0.021 C 
ATOM      4  H12 MOL d          35.600  40.057  -4.593  0.00  0.00     0.050 H 
ATOM      5  H13 MOL d          34.401  41.298  -4.096  0.00  0.00     0.050 H 
BRANCH   3   6
ATOM      6  P   MOL d          35.323  41.734  -6.205  0.00  0.00     0.138 P 
ATOM      7  O1P MOL d          36.598  42.438  -6.561  0.00  0.00    -0.666 OA
ATOM      8  O2P MOL d          34.227  42.702  -6.409  0.00  0.00    -0.666 OA
BRANCH   6   9
ATOM      9  CA  MOL d          34.982  40.250  -7.001  0.00  0.00     0.177 C 
ATOM     10  H4  MOL d          34.639  40.553  -8.001  0.00  0.00     0.101 H 
BRANCH   9  11
ATOM     11  N   MOL d          36.218  39.446  -7.136  0.00  0.00    -0.065 N 
ATOM     12  H1  MOL d          36.481  39.081  -6.234  0.00  0.00     0.275 HD
ATOM     13  H2  MOL d          36.960  40.028  -7.492  0.00  0.00     0.275 HD
ATOM     14  H3  MOL d          36.054  38.682  -7.772  0.00  0.00     0.275 HD
ENDBRANCH   9  11
BRANCH   9  15
ATOM     15  CB  MOL d          34.032  39.222  -6.546  0.00  0.00    -0.005 C 
ATOM     16  H5  MOL d          33.529  39.590  -5.640  0.00  0.00     0.044 H 
ATOM     17  H6  MOL d          34.595  38.308  -6.308  0.00  0.00     0.044 H 
BRANCH  15  18
ATOM     18  CG  MOL d          32.970  38.879  -7.585  0.00  0.00    -0.056 A 
ATOM     19  CD1 MOL d          32.183  37.737  -7.370  0.00  0.00    -0.077 A 
ATOM     20  CE1 MOL d          31.233  37.456  -8.357  0.00  0.00    -0.082 A 
ATOM     21  H7  MOL d          32.305  37.112  -6.494  0.00  0.00     0.084 H 
ATOM     22  CZ  MOL d          31.049  38.258  -9.474  0.00  0.00    -0.083 A 
ATOM     23  H9  MOL d          30.613  36.575  -8.243  0.00  0.00     0.083 H 
ATOM     24  CE2 MOL d          31.866  39.361  -9.616  0.00  0.00    -0.082 A 
ATOM     25  H11 MOL d          30.290  38.025 -10.212  0.00  0.00     0.083 H 
ATOM     26  CD2 MOL d          32.810  39.641  -8.722  0.00  0.00    -0.077 A 
ATOM     27  H10 MOL d          31.734  40.013 -10.472  0.00  0.00     0.083 H 
ATOM     28  H8  MOL d          33.468  40.486  -8.892  0.00  0.00     0.084 H 
ENDBRANCH  15  18
ENDBRANCH   9  15
ENDBRANCH   6   9
ENDBRANCH   3   6
ENDBRANCH   1   3
BRANCH   1  29
ATOM     29  CB  MOL d          35.806  42.103  -2.272  0.00  0.00    -0.029 C 
ATOM     30  H15 MOL d          35.547  41.147  -1.792  0.00  0.00     0.041 H 
ATOM     31  H16 MOL d          34.889  42.683  -2.453  0.00  0.00     0.041 H 
BRANCH  29  32
ATOM     32  CG  MOL d          36.668  42.886  -1.307  0.00  0.00    -0.057 A 
ATOM     33  CD1 MOL d          37.079  44.178  -1.597  0.00  0.00    -0.077 A 
ATOM     34  CE1 MOL d          37.872  44.894  -0.721  0.00  0.00    -0.082 A 
ATOM     35  H17 MOL d          36.771  44.636  -2.530  0.00  0.00     0.084 H 
ATOM     36  CZ  MOL d          38.251  44.304   0.470  0.00  0.00    -0.083 A 
ATOM     37  H19 MOL d          38.191  45.901  -0.964  0.00  0.00     0.083 H 
ATOM     38  CE2 MOL d          37.850  43.013   0.771  0.00  0.00    -0.082 A 
ATOM     39  H21 MOL d          38.866  44.854   1.172  0.00  0.00     0.083 H 
ATOM     40  CD2 MOL d          37.033  42.316  -0.098  0.00  0.00    -0.077 A 
ATOM     41  H20 MOL d          38.178  42.547   1.693  0.00  0.00     0.083 H 
ATOM     42  H18 MOL d          36.679  41.327   0.165  0.00  0.00     0.084 H 
ENDBRANCH  29  32
ENDBRANCH   1  29
BRANCH   1  43
ATOM     43  C   MOL d          37.747  40.999  -3.470  0.00  0.00     0.223 C 
ATOM     44  O   MOL d          38.860  41.504  -3.582  0.00  0.00    -0.273 OA
ATOM     45  N   MOL d          37.581  39.732  -3.171  0.00  0.00    -0.346 N 
ATOM     46  H22 MOL d          36.621  39.478  -3.057  0.00  0.00     0.163 HD
BRANCH  45  47
ATOM     47  CA  MOL d          38.489  38.622  -2.971  0.00  0.00     0.100 C 
ATOM     48  H23 MOL d          39.489  38.987  -2.695  0.00  0.00     0.090 H 
BRANCH  47  49
ATOM     49  CB  MOL d          37.934  37.783  -1.854  0.00  0.00    -0.013 C 
ATOM     50  H24 MOL d          37.027  37.317  -2.268  0.00  0.00     0.043 H 
ATOM     51  H25 MOL d          37.652  38.497  -1.068  0.00  0.00     0.043 H 
BRANCH  49  52
ATOM     52  CG  MOL d          38.651  36.682  -1.145  0.00  0.00    -0.056 A 
ATOM     53  CD1 MOL d          39.892  36.879  -0.574  0.00  0.00    -0.077 A 
ATOM     54  CE1 MOL d          40.565  35.881   0.109  0.00  0.00    -0.082 A 
ATOM     55  H26 MOL d          40.357  37.854  -0.663  0.00  0.00     0.084 H 
ATOM     56  CZ  MOL d          39.968  34.637   0.218  0.00  0.00    -0.083 A 
ATOM     57  H28 MOL d          41.538  36.069   0.549  0.00  0.00     0.083 H 
ATOM     58  CE2 MOL d          38.725  34.415  -0.353  0.00  0.00    -0.082 A 
ATOM     59  H30 MOL d          40.473  33.838   0.749  0.00  0.00     0.083 H 
ATOM     60  CD2 MOL d          38.067  35.427  -1.026  0.00  0.00    -0.077 A 
ATOM     61  H29 MOL d          38.264  33.437  -0.271  0.00  0.00     0.083 H 
ATOM     62  H27 MOL d          37.092  35.241  -1.462  0.00  0.00     0.084 H 
ENDBRANCH  49  52
ENDBRANCH  47  49
BRANCH  47  63
ATOM     63  C   MOL d          38.570  37.850  -4.290  0.00  0.00     0.197 C 
ATOM     64  O   MOL d          37.608  37.933  -5.075  0.00  0.00    -0.646 OA
ATOM     65  OXT MOL d          39.579  37.190  -4.525  0.00  0.00    -0.646 OA
ENDBRANCH  47  63
ENDBRANCH  45  47
ENDBRANCH   1  43
TORSDOF 13
ENDMDL
MODEL 2
REMARK VINA RESULT:      -7.5      2.017      3.274
REMARK  13 active torsions:
REMARK  status: ('A' for Active; 'I' for Inactive)
REMARK    1  A    between atoms: CA_2  and  N_1 
REMARK    2  A    between atoms: P_3  and  CA_2 
REMARK    3  A    between atoms: CA_2  and  CB_6 
REMARK    4  A    between atoms: CM_13  and  P_3 
REMARK    5  A    between atoms: CB_6  and  CG_7 
REMARK    6  A    between atoms: CA_14  and  CM_13 
REMARK    7  A    between atoms: CA_14  and  CB_15 
REMARK    8  A    between atoms: C_22  and  CA_14 
REMARK    9  A    between atoms: CB_15  and  CG_16 
REMARK       I    between atoms: C_22  and  N_24 
REMARK   10  A    between atoms: N_24  and  CA_25 
REMARK   11  A    between atoms: CA_25  and  CB_28 
REMARK   12  A    between atoms: CA_25  and  C_26 
REMARK   13  A    between atoms: CB_28  and  CG_29 
ROOT
ATOM      1  CA  MOL d          36.400  41.637  -3.948  0.00  0.00     0.036 C 
ATOM      2  H14 MOL d          36.736  42.603  -4.354  0.00  0.00     0.056 H 
ENDROOT
BRANCH   1   3
ATOM      3  CM  MOL d          35.336  41.093  -4.922  0.00  0.00     0.021 C 
ATOM      4  H12 MOL d          35.537  40.022  -5.075  0.00  0.00     0.050 H 
ATOM      5  H13 MOL d          34.352  41.217  -4.447  0.00  0.00     0.050 H 
BRANCH   3   6
ATOM      6  P   MOL d          35.271  41.860  -6.504  0.00  0.00     0.138 P 
ATOM      7  O1P MOL d          36.579  42.522  -6.821  0.00  0.00    -0.666 OA
ATOM      8  O2P MOL d          34.231  42.905  -6.578  0.00  0.00    -0.666 OA
BRANCH   6   9
ATOM      9  CA  MOL d          34.825  40.487  -7.435  0.00  0.00     0.177 C 
ATOM     10  H4  MOL d          33.807  40.250  -7.095  0.00  0.00     0.101 H 
BRANCH   9  11
ATOM     11  N   MOL d          34.788  40.834  -8.873  0.00  0.00    -0.065 N 
ATOM     12  H1  MOL d          35.642  40.533  -9.314  0.00  0.00     0.275 HD
ATOM     13  H2  MOL d          34.692  41.832  -8.975  0.00  0.00     0.275 HD
ATOM     14  H3  MOL d          34.005  40.375  -9.310  0.00  0.00     0.275 HD
ENDBRANCH   9  11
BRANCH   9  15
ATOM     15  CB  MOL d          35.541  39.202  -7.480  0.00  0.00    -0.005 C 
ATOM     16  H5  MOL d          36.235  39.159  -6.627  0.00  0.00     0.044 H 
ATOM     17  H6  MOL d          36.111  39.152  -8.419  0.00  0.00     0.044 H 
BRANCH  15  18
ATOM     18  CG  MOL d          34.616  37.991  -7.412  0.00  0.00    -0.056 A 
ATOM     19  CD1 MOL d          35.153  36.733  -7.722  0.00  0.00    -0.077 A 
ATOM     20  CE1 MOL d          34.262  35.657  -7.659  0.00  0.00    -0.082 A 
ATOM     21  H7  MOL d          36.193  36.603  -7.994  0.00  0.00     0.084 H 
ATOM     22  CZ  MOL d          32.932  35.802  -7.292  0.00  0.00    -0.083 A 
ATOM     23  H9  MOL d          34.627  34.667  -7.908  0.00  0.00     0.083 H 
ATOM     24  CE2 MOL d          32.479  37.073  -7.006  0.00  0.00    -0.082 A 
ATOM     25  H11 MOL d          32.271  34.945  -7.233  0.00  0.00     0.083 H 
ATOM     26  CD2 MOL d          33.281  38.130  -7.094  0.00  0.00    -0.077 A 
ATOM     27  H10 MOL d          31.447  37.213  -6.702  0.00  0.00     0.083 H 
ATOM     28  H8  MOL d          32.879  39.120  -6.912  0.00  0.00     0.084 H 
ENDBRANCH  15  18
ENDBRANCH   9  15
ENDBRANCH   6   9
ENDBRANCH   3   6
ENDBRANCH   1   3
BRANCH   1  29
ATOM     29  CB  MOL d          35.748  41.910  -2.582  0.00  0.00    -0.029 C 
ATOM     30  H15 MOL d          35.526  40.939  -2.114  0.00  0.00     0.041 H 
ATOM     31  H16 MOL d          34.809  42.455  -2.759  0.00  0.00     0.041 H 
BRANCH  29  32
ATOM     32  CG  MOL d          36.574  42.716  -1.605  0.00  0.00    -0.057 A 
ATOM     33  CD1 MOL d          36.932  42.199  -0.369  0.00  0.00    -0.077 A 
ATOM     34  CE1 MOL d          37.680  42.935   0.528  0.00  0.00    -0.082 A 
ATOM     35  H17 MOL d          36.618  41.197  -0.102  0.00  0.00     0.084 H 
ATOM     36  CZ  MOL d          38.083  44.209   0.174  0.00  0.00    -0.083 A 
ATOM     37  H19 MOL d          37.947  42.521   1.494  0.00  0.00     0.083 H 
ATOM     38  CE2 MOL d          37.731  44.738  -1.057  0.00  0.00    -0.082 A 
ATOM     39  H21 MOL d          38.678  44.797   0.863  0.00  0.00     0.083 H 
ATOM     40  CD2 MOL d          37.007  43.984  -1.958  0.00  0.00    -0.077 A 
ATOM     41  H20 MOL d          38.025  45.750  -1.313  0.00  0.00     0.083 H 
ATOM     42  H18 MOL d          36.778  44.382  -2.939  0.00  0.00     0.084 H 
ENDBRANCH  29  32
ENDBRANCH   1  29
BRANCH   1  43
ATOM     43  C   MOL d          37.657  40.771  -3.797  0.00  0.00     0.223 C 
ATOM     44  O   MOL d          38.778  41.236  -3.615  0.00  0.00    -0.273 OA
ATOM     45  N   MOL d          37.437  39.479  -3.855  0.00  0.00    -0.346 N 
ATOM     46  H22 MOL d          36.468  39.250  -3.950  0.00  0.00     0.163 HD
BRANCH  45  47
ATOM     47  CA  MOL d          38.294  38.313  -3.811  0.00  0.00     0.100 C 
ATOM     48  H23 MOL d          37.701  37.394  -3.918  0.00  0.00     0.090 H 
BRANCH  47  49
ATOM     49  CB  MOL d          39.262  38.424  -4.956  0.00  0.00    -0.013 C 
ATOM     50  H24 MOL d          40.188  38.823  -4.513  0.00  0.00     0.043 H 
ATOM     51  H25 MOL d          38.826  39.174  -5.631  0.00  0.00     0.043 H 
BRANCH  49  52
ATOM     52  CG  MOL d          39.702  37.307  -5.843  0.00  0.00    -0.056 A 
ATOM     53  CD1 MOL d          41.020  36.902  -5.897  0.00  0.00    -0.077 A 
ATOM     54  CE1 MOL d          41.447  35.854  -6.694  0.00  0.00    -0.082 A 
ATOM     55  H26 MOL d          41.751  37.426  -5.291  0.00  0.00     0.084 H 
ATOM     56  CZ  MOL d          40.511  35.190  -7.468  0.00  0.00    -0.083 A 
ATOM     57  H28 MOL d          42.490  35.560  -6.711  0.00  0.00     0.083 H 
ATOM     58  CE2 MOL d          39.183  35.583  -7.434  0.00  0.00    -0.082 A 
ATOM     59  H30 MOL d          40.818  34.364  -8.100  0.00  0.00     0.083 H 
ATOM     60  CD2 MOL d          38.777  36.629  -6.627  0.00  0.00    -0.077 A 
ATOM     61  H29 MOL d          38.454  35.064  -8.047  0.00  0.00     0.083 H 
ATOM     62  H27 MOL d          37.733  36.921  -6.606  0.00  0.00     0.084 H 
ENDBRANCH  49  52
ENDBRANCH  47  49
BRANCH  47  63
ATOM     63  C   MOL d          39.001  38.312  -2.454  0.00  0.00     0.197 C 
ATOM     64  O   MOL d          38.296  38.323  -1.428  0.00  0.00    -0.646 OA
ATOM     65  OXT MOL d          40.229  38.293  -2.429  0.00  0.00    -0.646 OA
ENDBRANCH  47  63
ENDBRANCH  45  47
ENDBRANCH   1  43
TORSDOF 13
ENDMDL
MODEL 3
REMARK VINA RESULT:      -7.5      2.120      7.960
REMARK  13 active torsions:
REMARK  status: ('A' for Active; 'I' for Inactive)
REMARK    1  A    between atoms: CA_2  and  N_1 
REMARK    2  A    between atoms: P_3  and  CA_2 
REMARK    3  A    between atoms: CA_2  and  CB_6 
REMARK    4  A    between atoms: CM_13  and  P_3 
REMARK    5  A    between atoms: CB_6  and  CG_7 
REMARK    6  A    between atoms: CA_14  and  CM_13 
REMARK    7  A    between atoms: CA_14  and  CB_15 
REMARK    8  A    between atoms: C_22  and  CA_14 
REMARK    9  A    between atoms: CB_15  and  CG_16 
REMARK       I    between atoms: C_22  and  N_24 
REMARK   10  A    between atoms: N_24  and  CA_25 
REMARK   11  A    between atoms: CA_25  and  CB_28 
REMARK   12  A    between atoms: CA_25  and  C_26 
REMARK   13  A    between atoms: CB_28  and  CG_29 
ROOT
ATOM      1  CA  MOL d          37.802  40.066  -3.998  0.00  0.00     0.036 C 
ATOM      2  H14 MOL d          37.455  39.429  -3.171  0.00  0.00     0.056 H 
ENDROOT
BRANCH   1   3
ATOM      3  CM  MOL d          38.998  39.340  -4.644  0.00  0.00     0.021 C 
ATOM      4  H12 MOL d          38.955  39.520  -5.728  0.00  0.00     0.050 H 
ATOM      5  H13 MOL d          39.919  39.782  -4.236  0.00  0.00     0.050 H 
BRANCH   3   6
ATOM      6  P   MOL d          39.077  37.601  -4.390  0.00  0.00     0.138 P 
ATOM      7  O1P MOL d          39.619  36.916  -5.609  0.00  0.00    -0.666 OA
ATOM      8  O2P MOL d          37.750  37.013  -4.121  0.00  0.00    -0.666 OA
BRANCH   6   9
ATOM      9  CA  MOL d          40.048  37.594  -2.972  0.00  0.00     0.177 C 
ATOM     10  H4  MOL d          40.599  36.643  -3.029  0.00  0.00     0.101 H 
BRANCH   9  11
ATOM     11  N   MOL d          41.012  38.716  -3.006  0.00  0.00    -0.065 N 
ATOM     12  H1  MOL d          40.844  39.279  -3.825  0.00  0.00     0.275 HD
ATOM     13  H2  MOL d          41.951  38.352  -3.037  0.00  0.00     0.275 HD
ATOM     14  H3  MOL d          40.898  39.283  -2.181  0.00  0.00     0.275 HD
ENDBRANCH   9  11
BRANCH   9  15
ATOM     15  CB  MOL d          39.559  37.691  -1.588  0.00  0.00    -0.005 C 
ATOM     16  H5  MOL d          38.552  38.133  -1.605  0.00  0.00     0.044 H 
ATOM     17  H6  MOL d          40.238  38.347  -1.023  0.00  0.00     0.044 H 
BRANCH  15  18
ATOM     18  CG  MOL d          39.485  36.344  -0.876  0.00  0.00    -0.056 A 
ATOM     19  CD1 MOL d          38.309  35.592  -1.010  0.00  0.00    -0.077 A 
ATOM     20  CE1 MOL d          38.284  34.372  -0.328  0.00  0.00    -0.082 A 
ATOM     21  H7  MOL d          37.471  35.935  -1.606  0.00  0.00     0.084 H 
ATOM     22  CZ  MOL d          39.355  33.906   0.421  0.00  0.00    -0.083 A 
ATOM     23  H9  MOL d          37.389  33.763  -0.388  0.00  0.00     0.083 H 
ATOM     24  CE2 MOL d          40.475  34.707   0.507  0.00  0.00    -0.082 A 
ATOM     25  H11 MOL d          39.313  32.947   0.922  0.00  0.00     0.083 H 
ATOM     26  CD2 MOL d          40.525  35.894  -0.091  0.00  0.00    -0.077 A 
ATOM     27  H10 MOL d          41.333  34.362   1.074  0.00  0.00     0.083 H 
ATOM     28  H8  MOL d          41.401  36.519   0.041  0.00  0.00     0.084 H 
ENDBRANCH  15  18
ENDBRANCH   9  15
ENDBRANCH   6   9
ENDBRANCH   3   6
ENDBRANCH   1   3
BRANCH   1  29
ATOM     29  CB  MOL d          38.280  41.396  -3.391  0.00  0.00    -0.029 C 
ATOM     30  H15 MOL d          37.993  42.204  -4.080  0.00  0.00     0.041 H 
ATOM     31  H16 MOL d          39.377  41.355  -3.311  0.00  0.00     0.041 H 
BRANCH  29  32
ATOM     32  CG  MOL d          37.727  41.734  -2.024  0.00  0.00    -0.057 A 
ATOM     33  CD1 MOL d          37.725  43.038  -1.554  0.00  0.00    -0.077 A 
ATOM     34  CE1 MOL d          37.228  43.350  -0.304  0.00  0.00    -0.082 A 
ATOM     35  H17 MOL d          38.122  43.829  -2.180  0.00  0.00     0.084 H 
ATOM     36  CZ  MOL d          36.716  42.336   0.483  0.00  0.00    -0.083 A 
ATOM     37  H19 MOL d          37.239  44.373   0.055  0.00  0.00     0.083 H 
ATOM     38  CE2 MOL d          36.715  41.028   0.026  0.00  0.00    -0.082 A 
ATOM     39  H21 MOL d          36.314  42.564   1.463  0.00  0.00     0.083 H 
ATOM     40  CD2 MOL d          37.188  40.731  -1.237  0.00  0.00    -0.077 A 
ATOM     41  H20 MOL d          36.340  40.235   0.662  0.00  0.00     0.083 H 
ATOM     42  H18 MOL d          37.137  39.715  -1.611  0.00  0.00     0.084 H 
ENDBRANCH  29  32
ENDBRANCH   1  29
BRANCH   1  43
ATOM     43  C   MOL d          36.591  40.281  -4.915  0.00  0.00     0.223 C 
ATOM     44  O   MOL d          35.836  41.244  -4.819  0.00  0.00    -0.273 OA
ATOM     45  N   MOL d          36.435  39.358  -5.834  0.00  0.00    -0.346 N 
ATOM     46  H22 MOL d          37.159  38.668  -5.825  0.00  0.00     0.163 HD
BRANCH  45  47
ATOM     47  CA  MOL d          35.441  39.123  -6.860  0.00  0.00     0.100 C 
ATOM     48  H23 MOL d          34.437  39.056  -6.417  0.00  0.00     0.090 H 
BRANCH  47  49
ATOM     49  CB  MOL d          35.495  40.285  -7.812  0.00  0.00    -0.013 C 
ATOM     50  H24 MOL d          36.021  39.906  -8.701  0.00  0.00     0.043 H 
ATOM     51  H25 MOL d          36.118  41.040  -7.312  0.00  0.00     0.043 H 
BRANCH  49  52
ATOM     52  CG  MOL d          34.320  41.038  -8.344  0.00  0.00    -0.056 A 
ATOM     53  CD1 MOL d          33.563  40.551  -9.390  0.00  0.00    -0.077 A 
ATOM     54  CE1 MOL d          32.456  41.219  -9.884  0.00  0.00    -0.082 A 
ATOM     55  H26 MOL d          33.847  39.608  -9.843  0.00  0.00     0.084 H 
ATOM     56  CZ  MOL d          32.099  42.424  -9.305  0.00  0.00    -0.083 A 
ATOM     57  H28 MOL d          31.881  40.807 -10.706  0.00  0.00     0.083 H 
ATOM     58  CE2 MOL d          32.848  42.935  -8.257  0.00  0.00    -0.082 A 
ATOM     59  H30 MOL d          31.235  42.968  -9.671  0.00  0.00     0.083 H 
ATOM     60  CD2 MOL d          33.947  42.249  -7.775  0.00  0.00    -0.077 A 
ATOM     61  H29 MOL d          32.569  43.882  -7.810  0.00  0.00     0.083 H 
ATOM     62  H27 MOL d          34.520  42.658  -6.950  0.00  0.00     0.084 H 
ENDBRANCH  49  52
ENDBRANCH  47  49
BRANCH  47  63
ATOM     63  C   MOL d          35.788  37.799  -7.544  0.00  0.00     0.197 C 
ATOM     64  O   MOL d          36.195  36.863  -6.831  0.00  0.00    -0.646 OA
ATOM     65  OXT MOL d          35.645  37.708  -8.761  0.00  0.00    -0.646 OA
ENDBRANCH  47  63
ENDBRANCH  45  47
ENDBRANCH   1  43
TORSDOF 13
ENDMDL
MODEL 4
REMARK VINA RESULT:      -7.4      1.871      8.021
REMARK  13 active torsions:
REMARK  status: ('A' for Active; 'I' for Inactive)
REMARK    1  A    between atoms: CA_2  and  N_1 
REMARK    2  A    between atoms: P_3  and  CA_2 
REMARK    3  A    between atoms: CA_2  and  CB_6 
REMARK    4  A    between atoms: CM_13  and  P_3 
REMARK    5  A    between atoms: CB_6  and  CG_7 
REMARK    6  A    between atoms: CA_14  and  CM_13 
REMARK    7  A    between atoms: CA_14  and  CB_15 
REMARK    8  A    between atoms: C_22  and  CA_14 
REMARK    9  A    between atoms: CB_15  and  CG_16 
REMARK       I    between atoms: C_22  and  N_24 
REMARK   10  A    between atoms: N_24  and  CA_25 
REMARK   11  A    between atoms: CA_25  and  CB_28 
REMARK   12  A    between atoms: CA_25  and  C_26 
REMARK   13  A    between atoms: CB_28  and  CG_29 
ROOT
ATOM      1  CA  MOL d          37.802  39.516  -4.272  0.00  0.00     0.036 C 
ATOM      2  H14 MOL d          37.270  39.086  -3.411  0.00  0.00     0.056 H 
ENDROOT
BRANCH   1   3
ATOM      3  CM  MOL d          39.197  38.862  -4.304  0.00  0.00     0.021 C 
ATOM      4  H12 MOL d          39.629  39.040  -5.300  0.00  0.00     0.050 H 
ATOM      5  H13 MOL d          39.817  39.355  -3.541  0.00  0.00     0.050 H 
BRANCH   3   6
ATOM      6  P   MOL d          39.246  37.129  -3.999  0.00  0.00     0.138 P 
ATOM      7  O1P MOL d          39.654  36.389  -5.238  0.00  0.00    -0.666 OA
ATOM      8  O2P MOL d          37.931  36.594  -3.591  0.00  0.00    -0.666 OA
BRANCH   6   9
ATOM      9  CA  MOL d          40.341  37.134  -2.675  0.00  0.00     0.177 C 
ATOM     10  H4  MOL d          40.920  36.207  -2.801  0.00  0.00     0.101 H 
BRANCH   9  11
ATOM     11  N   MOL d          41.255  38.294  -2.771  0.00  0.00    -0.065 N 
ATOM     12  H1  MOL d          42.210  37.974  -2.729  0.00  0.00     0.275 HD
ATOM     13  H2  MOL d          41.078  38.925  -2.005  0.00  0.00     0.275 HD
ATOM     14  H3  MOL d          41.100  38.773  -3.644  0.00  0.00     0.275 HD
ENDBRANCH   9  11
BRANCH   9  15
ATOM     15  CB  MOL d          39.976  37.187  -1.250  0.00  0.00    -0.005 C 
ATOM     16  H5  MOL d          39.051  37.775  -1.149  0.00  0.00     0.044 H 
ATOM     17  H6  MOL d          40.788  37.684  -0.700  0.00  0.00     0.044 H 
BRANCH  15  18
ATOM     18  CG  MOL d          39.746  35.812  -0.633  0.00  0.00    -0.056 A 
ATOM     19  CD1 MOL d          40.869  35.068  -0.244  0.00  0.00    -0.077 A 
ATOM     20  CE1 MOL d          40.607  33.808   0.303  0.00  0.00    -0.082 A 
ATOM     21  H7  MOL d          41.878  35.446  -0.360  0.00  0.00     0.084 H 
ATOM     22  CZ  MOL d          39.322  33.316   0.479  0.00  0.00    -0.083 A 
ATOM     23  H9  MOL d          41.445  33.189   0.603  0.00  0.00     0.083 H 
ATOM     24  CE2 MOL d          38.269  34.107   0.067  0.00  0.00    -0.082 A 
ATOM     25  H11 MOL d          39.151  32.344   0.925  0.00  0.00     0.083 H 
ATOM     26  CD2 MOL d          38.475  35.294  -0.497  0.00  0.00    -0.077 A 
ATOM     27  H10 MOL d          37.254  33.754   0.206  0.00  0.00     0.083 H 
ATOM     28  H8  MOL d          37.627  35.866  -0.856  0.00  0.00     0.084 H 
ENDBRANCH  15  18
ENDBRANCH   9  15
ENDBRANCH   6   9
ENDBRANCH   3   6
ENDBRANCH   1   3
BRANCH   1  29
ATOM     29  CB  MOL d          37.953  41.025  -4.018  0.00  0.00    -0.029 C 
ATOM     30  H15 MOL d          37.412  41.558  -4.814  0.00  0.00     0.041 H 
ATOM     31  H16 MOL d          39.024  41.271  -4.075  0.00  0.00     0.041 H 
BRANCH  29  32
ATOM     32  CG  MOL d          37.432  41.526  -2.689  0.00  0.00    -0.057 A 
ATOM     33  CD1 MOL d          37.049  42.848  -2.520  0.00  0.00    -0.077 A 
ATOM     34  CE1 MOL d          36.580  43.310  -1.306  0.00  0.00    -0.082 A 
ATOM     35  H17 MOL d          37.118  43.532  -3.358  0.00  0.00     0.084 H 
ATOM     36  CZ  MOL d          36.487  42.428  -0.247  0.00  0.00    -0.083 A 
ATOM     37  H19 MOL d          36.290  44.348  -1.186  0.00  0.00     0.083 H 
ATOM     38  CE2 MOL d          36.868  41.105  -0.402  0.00  0.00    -0.082 A 
ATOM     39  H21 MOL d          36.112  42.772   0.710  0.00  0.00     0.083 H 
ATOM     40  CD2 MOL d          37.309  40.646  -1.627  0.00  0.00    -0.077 A 
ATOM     41  H20 MOL d          36.821  40.428   0.443  0.00  0.00     0.083 H 
ATOM     42  H18 MOL d          37.557  39.599  -1.757  0.00  0.00     0.084 H 
ENDBRANCH  29  32
ENDBRANCH   1  29
BRANCH   1  43
ATOM     43  C   MOL d          36.922  39.248  -5.500  0.00  0.00     0.223 C 
ATOM     44  O   MOL d          36.874  38.163  -6.071  0.00  0.00    -0.273 OA
ATOM     45  N   MOL d          36.198  40.273  -5.883  0.00  0.00    -0.346 N 
ATOM     46  H22 MOL d          36.299  41.069  -5.288  0.00  0.00     0.163 HD
BRANCH  45  47
ATOM     47  CA  MOL d          35.283  40.498  -6.983  0.00  0.00     0.100 C 
ATOM     48  H23 MOL d          35.647  40.003  -7.895  0.00  0.00     0.090 H 
BRANCH  47  49
ATOM     49  CB  MOL d          33.955  39.916  -6.589  0.00  0.00    -0.013 C 
ATOM     50  H24 MOL d          33.357  40.770  -6.239  0.00  0.00     0.043 H 
ATOM     51  H25 MOL d          34.171  39.249  -5.742  0.00  0.00     0.043 H 
BRANCH  49  52
ATOM     52  CG  MOL d          33.042  39.137  -7.477  0.00  0.00    -0.056 A 
ATOM     53  CD1 MOL d          32.773  39.539  -8.770  0.00  0.00    -0.077 A 
ATOM     54  CE1 MOL d          31.949  38.821  -9.618  0.00  0.00    -0.082 A 
ATOM     55  H26 MOL d          33.226  40.454  -9.134  0.00  0.00     0.084 H 
ATOM     56  CZ  MOL d          31.371  37.655  -9.147  0.00  0.00    -0.083 A 
ATOM     57  H28 MOL d          31.761  39.163 -10.630  0.00  0.00     0.083 H 
ATOM     58  CE2 MOL d          31.622  37.234  -7.850  0.00  0.00    -0.082 A 
ATOM     59  H30 MOL d          30.723  37.071  -9.792  0.00  0.00     0.083 H 
ATOM     60  CD2 MOL d          32.452  37.964  -7.021  0.00  0.00    -0.077 A 
ATOM     61  H29 MOL d          31.162  36.324  -7.483  0.00  0.00     0.083 H 
ATOM     62  H27 MOL d          32.645  37.619  -6.011  0.00  0.00     0.084 H 
ENDBRANCH  49  52
ENDBRANCH  47  49
BRANCH  47  63
ATOM     63  C   MOL d          35.206  42.009  -7.216  0.00  0.00     0.197 C 
ATOM     64  O   MOL d          35.533  42.761  -6.279  0.00  0.00    -0.646 OA
ATOM     65  OXT MOL d          34.835  42.418  -8.313  0.00  0.00    -0.646 OA
ENDBRANCH  47  63
ENDBRANCH  45  47
ENDBRANCH   1  43
TORSDOF 13
ENDMDL
MODEL 5
REMARK VINA RESULT:      -7.3      2.423      7.483
REMARK  13 active torsions:
REMARK  status: ('A' for Active; 'I' for Inactive)
REMARK    1  A    between atoms: CA_2  and  N_1 
REMARK    2  A    between atoms: P_3  and  CA_2 
REMARK    3  A    between atoms: CA_2  and  CB_6 
REMARK    4  A    between atoms: CM_13  and  P_3 
REMARK    5  A    between atoms: CB_6  and  CG_7 
REMARK    6  A    between atoms: CA_14  and  CM_13 
REMARK    7  A    between atoms: CA_14  and  CB_15 
REMARK    8  A    between atoms: C_22  and  CA_14 
REMARK    9  A    between atoms: CB_15  and  CG_16 
REMARK       I    between atoms: C_22  and  N_24 
REMARK   10  A    between atoms: N_24  and  CA_25 
REMARK   11  A    between atoms: CA_25  and  CB_28 
REMARK   12  A    between atoms: CA_25  and  C_26 
REMARK   13  A    between atoms: CB_28  and  CG_29 
ROOT
ATOM      1  CA  MOL d          38.934  39.401  -4.227  0.00  0.00     0.036 C 
ATOM      2  H14 MOL d          39.146  40.033  -5.103  0.00  0.00     0.056 H 
ENDROOT
BRANCH   1   3
ATOM      3  CM  MOL d          37.824  40.111  -3.428  0.00  0.00     0.021 C 
ATOM      4  H12 MOL d          36.980  39.411  -3.332  0.00  0.00     0.050 H 
ATOM      5  H13 MOL d          38.224  40.342  -2.430  0.00  0.00     0.050 H 
BRANCH   3   6
ATOM      6  P   MOL d          37.207  41.606  -4.120  0.00  0.00     0.138 P 
ATOM      7  O1P MOL d          36.528  41.338  -5.430  0.00  0.00    -0.666 OA
ATOM      8  O2P MOL d          38.279  42.587  -4.384  0.00  0.00    -0.666 OA
BRANCH   6   9
ATOM      9  CA  MOL d          36.227  42.112  -2.802  0.00  0.00     0.177 C 
ATOM     10  H4  MOL d          36.147  43.202  -2.929  0.00  0.00     0.101 H 
BRANCH   9  11
ATOM     11  N   MOL d          34.878  41.512  -2.908  0.00  0.00    -0.065 N 
ATOM     12  H1  MOL d          34.661  41.341  -3.877  0.00  0.00     0.275 HD
ATOM     13  H2  MOL d          34.197  42.145  -2.518  0.00  0.00     0.275 HD
ATOM     14  H3  MOL d          34.857  40.642  -2.401  0.00  0.00     0.275 HD
ENDBRANCH   9  11
BRANCH   9  15
ATOM     15  CB  MOL d          36.515  41.895  -1.376  0.00  0.00    -0.005 C 
ATOM     16  H5  MOL d          37.209  41.047  -1.286  0.00  0.00     0.044 H 
ATOM     17  H6  MOL d          35.573  41.654  -0.862  0.00  0.00     0.044 H 
BRANCH  15  18
ATOM     18  CG  MOL d          37.141  43.107  -0.694  0.00  0.00    -0.056 A 
ATOM     19  CD1 MOL d          36.982  44.361  -1.303  0.00  0.00    -0.077 A 
ATOM     20  CE1 MOL d          37.586  45.439  -0.648  0.00  0.00    -0.082 A 
ATOM     21  H7  MOL d          36.427  44.486  -2.225  0.00  0.00     0.084 H 
ATOM     22  CZ  MOL d          38.283  45.300   0.543  0.00  0.00    -0.083 A 
ATOM     23  H9  MOL d          37.505  46.425  -1.091  0.00  0.00     0.083 H 
ATOM     24  CE2 MOL d          38.398  44.033   1.077  0.00  0.00    -0.082 A 
ATOM     25  H11 MOL d          38.722  46.158   1.038  0.00  0.00     0.083 H 
ATOM     26  CD2 MOL d          37.875  42.975   0.465  0.00  0.00    -0.077 A 
ATOM     27  H10 MOL d          38.925  43.898   2.015  0.00  0.00     0.083 H 
ATOM     28  H8  MOL d          38.030  41.987   0.886  0.00  0.00     0.084 H 
ENDBRANCH  15  18
ENDBRANCH   9  15
ENDBRANCH   6   9
ENDBRANCH   3   6
ENDBRANCH   1   3
BRANCH   1  29
ATOM     29  CB  MOL d          40.214  39.341  -3.377  0.00  0.00    -0.029 C 
ATOM     30  H15 MOL d          40.206  40.203  -2.693  0.00  0.00     0.041 H 
ATOM     31  H16 MOL d          41.075  39.421  -4.057  0.00  0.00     0.041 H 
BRANCH  29  32
ATOM     32  CG  MOL d          40.395  38.091  -2.544  0.00  0.00    -0.057 A 
ATOM     33  CD1 MOL d          39.497  37.760  -1.541  0.00  0.00    -0.077 A 
ATOM     34  CE1 MOL d          39.663  36.624  -0.774  0.00  0.00    -0.082 A 
ATOM     35  H17 MOL d          38.647  38.407  -1.356  0.00  0.00     0.084 H 
ATOM     36  CZ  MOL d          40.745  35.802  -1.025  0.00  0.00    -0.083 A 
ATOM     37  H19 MOL d          38.956  36.381   0.011  0.00  0.00     0.083 H 
ATOM     38  CE2 MOL d          41.652  36.122  -2.022  0.00  0.00    -0.082 A 
ATOM     39  H21 MOL d          40.886  34.902  -0.438  0.00  0.00     0.083 H 
ATOM     40  CD2 MOL d          41.461  37.245  -2.803  0.00  0.00    -0.077 A 
ATOM     41  H20 MOL d          42.514  35.488  -2.191  0.00  0.00     0.083 H 
ATOM     42  H18 MOL d          42.144  37.464  -3.615  0.00  0.00     0.084 H 
ENDBRANCH  29  32
ENDBRANCH   1  29
BRANCH   1  43
ATOM     43  C   MOL d          38.568  38.016  -4.774  0.00  0.00     0.223 C 
ATOM     44  O   MOL d          37.606  37.366  -4.373  0.00  0.00    -0.273 OA
ATOM     45  N   MOL d          39.356  37.583  -5.729  0.00  0.00    -0.346 N 
ATOM     46  H22 MOL d          40.059  38.245  -5.988  0.00  0.00     0.163 HD
BRANCH  45  47
ATOM     47  CA  MOL d          39.426  36.353  -6.491  0.00  0.00     0.100 C 
ATOM     48  H23 MOL d          39.072  35.505  -5.887  0.00  0.00     0.090 H 
BRANCH  47  49
ATOM     49  CB  MOL d          38.541  36.519  -7.694  0.00  0.00    -0.013 C 
ATOM     50  H24 MOL d          38.877  35.751  -8.407  0.00  0.00     0.043 H 
ATOM     51  H25 MOL d          38.778  37.516  -8.092  0.00  0.00     0.043 H 
BRANCH  49  52
ATOM     52  CG  MOL d          37.050  36.438  -7.704  0.00  0.00    -0.056 A 
ATOM     53  CD1 MOL d          36.391  35.230  -7.592  0.00  0.00    -0.077 A 
ATOM     54  CE1 MOL d          35.011  35.133  -7.575  0.00  0.00    -0.082 A 
ATOM     55  H26 MOL d          36.979  34.322  -7.514  0.00  0.00     0.084 H 
ATOM     56  CZ  MOL d          34.266  36.294  -7.678  0.00  0.00    -0.083 A 
ATOM     57  H28 MOL d          34.525  34.168  -7.483  0.00  0.00     0.083 H 
ATOM     58  CE2 MOL d          34.906  37.518  -7.797  0.00  0.00    -0.082 A 
ATOM     59  H30 MOL d          33.183  36.247  -7.665  0.00  0.00     0.083 H 
ATOM     60  CD2 MOL d          36.286  37.593  -7.807  0.00  0.00    -0.077 A 
ATOM     61  H29 MOL d          34.319  38.424  -7.884  0.00  0.00     0.083 H 
ATOM     62  H27 MOL d          36.773  38.558  -7.894  0.00  0.00     0.084 H 
ENDBRANCH  49  52
ENDBRANCH  47  49
BRANCH  47  63
ATOM     63  C   MOL d          40.891  36.133  -6.875  0.00  0.00     0.197 C 
ATOM     64  O   MOL d          41.176  35.109  -7.524  0.00  0.00    -0.646 OA
ATOM     65  OXT MOL d          41.722  36.972  -6.538  0.00  0.00    -0.646 OA
ENDBRANCH  47  63
ENDBRANCH  45  47
ENDBRANCH   1  43
TORSDOF 13
ENDMDL
MODEL 6
REMARK VINA RESULT:      -7.3      2.152      5.877
REMARK  13 active torsions:
REMARK  status: ('A' for Active; 'I' for Inactive)
REMARK    1  A    between atoms: CA_2  and  N_1 
REMARK    2  A    between atoms: P_3  and  CA_2 
REMARK    3  A    between atoms: CA_2  and  CB_6 
REMARK    4  A    between atoms: CM_13  and  P_3 
REMARK    5  A    between atoms: CB_6  and  CG_7 
REMARK    6  A    between atoms: CA_14  and  CM_13 
REMARK    7  A    between atoms: CA_14  and  CB_15 
REMARK    8  A    between atoms: C_22  and  CA_14 
REMARK    9  A    between atoms: CB_15  and  CG_16 
REMARK       I    between atoms: C_22  and  N_24 
REMARK   10  A    between atoms: N_24  and  CA_25 
REMARK   11  A    between atoms: CA_25  and  CB_28 
REMARK   12  A    between atoms: CA_25  and  C_26 
REMARK   13  A    between atoms: CB_28  and  CG_29 
ROOT
ATOM      1  CA  MOL d          38.304  38.375  -4.398  0.00  0.00     0.036 C 
ATOM      2  H14 MOL d          37.782  37.543  -3.903  0.00  0.00     0.056 H 
ENDROOT
BRANCH   1   3
ATOM      3  CM  MOL d          38.949  37.799  -5.673  0.00  0.00     0.021 C 
ATOM      4  H12 MOL d          38.824  38.539  -6.477  0.00  0.00     0.050 H 
ATOM      5  H13 MOL d          40.021  37.654  -5.472  0.00  0.00     0.050 H 
BRANCH   3   6
ATOM      6  P   MOL d          38.297  36.268  -6.246  0.00  0.00     0.138 P 
ATOM      7  O1P MOL d          37.355  35.687  -5.235  0.00  0.00    -0.666 OA
ATOM      8  O2P MOL d          39.352  35.261  -6.479  0.00  0.00    -0.666 OA
BRANCH   6   9
ATOM      9  CA  MOL d          37.634  36.813  -7.734  0.00  0.00     0.177 C 
ATOM     10  H4  MOL d          37.659  37.910  -7.654  0.00  0.00     0.101 H 
BRANCH   9  11
ATOM     11  N   MOL d          38.494  36.390  -8.863  0.00  0.00    -0.065 N 
ATOM     12  H1  MOL d          39.331  36.950  -8.876  0.00  0.00     0.275 HD
ATOM     13  H2  MOL d          37.994  36.513  -9.729  0.00  0.00     0.275 HD
ATOM     14  H3  MOL d          38.741  35.420  -8.751  0.00  0.00     0.275 HD
ENDBRANCH   9  11
BRANCH   9  15
ATOM     15  CB  MOL d          36.301  36.480  -8.261  0.00  0.00    -0.005 C 
ATOM     16  H5  MOL d          35.888  35.653  -7.666  0.00  0.00     0.044 H 
ATOM     17  H6  MOL d          36.410  36.160  -9.308  0.00  0.00     0.044 H 
BRANCH  15  18
ATOM     18  CG  MOL d          35.322  37.648  -8.213  0.00  0.00    -0.056 A 
ATOM     19  CD1 MOL d          35.660  38.820  -8.906  0.00  0.00    -0.077 A 
ATOM     20  CE1 MOL d          34.737  39.867  -8.820  0.00  0.00    -0.082 A 
ATOM     21  H7  MOL d          36.579  38.908  -9.473  0.00  0.00     0.084 H 
ATOM     22  CZ  MOL d          33.546  39.765  -8.116  0.00  0.00    -0.083 A 
ATOM     23  H9  MOL d          34.963  40.800  -9.325  0.00  0.00     0.083 H 
ATOM     24  CE2 MOL d          33.289  38.581  -7.457  0.00  0.00    -0.082 A 
ATOM     25  H11 MOL d          32.842  40.588  -8.084  0.00  0.00     0.083 H 
ATOM     26  CD2 MOL d          34.158  37.574  -7.478  0.00  0.00    -0.077 A 
ATOM     27  H10 MOL d          32.359  38.468  -6.911  0.00  0.00     0.083 H 
ATOM     28  H8  MOL d          33.947  36.678  -6.906  0.00  0.00     0.084 H 
ENDBRANCH  15  18
ENDBRANCH   9  15
ENDBRANCH   6   9
ENDBRANCH   3   6
ENDBRANCH   1   3
BRANCH   1  29
ATOM     29  CB  MOL d          39.409  38.862  -3.444  0.00  0.00    -0.029 C 
ATOM     30  H15 MOL d          38.990  39.669  -2.826  0.00  0.00     0.041 H 
ATOM     31  H16 MOL d          40.232  39.259  -4.057  0.00  0.00     0.041 H 
BRANCH  29  32
ATOM     32  CG  MOL d          39.985  37.817  -2.514  0.00  0.00    -0.057 A 
ATOM     33  CD1 MOL d          39.298  37.407  -1.382  0.00  0.00    -0.077 A 
ATOM     34  CE1 MOL d          39.824  36.460  -0.526  0.00  0.00    -0.082 A 
ATOM     35  H17 MOL d          38.328  37.840  -1.163  0.00  0.00     0.084 H 
ATOM     36  CZ  MOL d          41.057  35.908  -0.818  0.00  0.00    -0.083 A 
ATOM     37  H19 MOL d          39.279  36.153   0.360  0.00  0.00     0.083 H 
ATOM     38  CE2 MOL d          41.755  36.310  -1.945  0.00  0.00    -0.082 A 
ATOM     39  H21 MOL d          41.480  35.157  -0.162  0.00  0.00     0.083 H 
ATOM     40  CD2 MOL d          41.208  37.237  -2.809  0.00  0.00    -0.077 A 
ATOM     41  H20 MOL d          42.735  35.895  -2.149  0.00  0.00     0.083 H 
ATOM     42  H18 MOL d          41.734  37.511  -3.716  0.00  0.00     0.084 H 
ENDBRANCH  29  32
ENDBRANCH   1  29
BRANCH   1  43
ATOM     43  C   MOL d          37.253  39.468  -4.629  0.00  0.00     0.223 C 
ATOM     44  O   MOL d          36.418  39.421  -5.527  0.00  0.00    -0.273 OA
ATOM     45  N   MOL d          37.301  40.458  -3.769  0.00  0.00    -0.346 N 
ATOM     46  H22 MOL d          37.995  40.331  -3.062  0.00  0.00     0.163 HD
BRANCH  45  47
ATOM     47  CA  MOL d          36.563  41.696  -3.624  0.00  0.00     0.100 C 
ATOM     48  H23 MOL d          35.619  41.522  -3.087  0.00  0.00     0.090 H 
BRANCH  47  49
ATOM     49  CB  MOL d          37.424  42.642  -2.835  0.00  0.00    -0.013 C 
ATOM     50  H24 MOL d          37.110  43.648  -3.150  0.00  0.00     0.043 H 
ATOM     51  H25 MOL d          38.451  42.454  -3.181  0.00  0.00     0.043 H 
BRANCH  49  52
ATOM     52  CG  MOL d          37.518  42.708  -1.347  0.00  0.00    -0.056 A 
ATOM     53  CD1 MOL d          36.803  41.848  -0.538  0.00  0.00    -0.077 A 
ATOM     54  CE1 MOL d          36.891  41.875   0.842  0.00  0.00    -0.082 A 
ATOM     55  H26 MOL d          36.145  41.123  -1.003  0.00  0.00     0.084 H 
ATOM     56  CZ  MOL d          37.730  42.805   1.432  0.00  0.00    -0.083 A 
ATOM     57  H28 MOL d          36.318  41.184   1.448  0.00  0.00     0.083 H 
ATOM     58  CE2 MOL d          38.454  43.683   0.640  0.00  0.00    -0.082 A 
ATOM     59  H30 MOL d          37.820  42.847   2.512  0.00  0.00     0.083 H 
ATOM     60  CD2 MOL d          38.355  43.635  -0.737  0.00  0.00    -0.077 A 
ATOM     61  H29 MOL d          39.105  44.414   1.106  0.00  0.00     0.083 H 
ATOM     62  H27 MOL d          38.932  44.324  -1.344  0.00  0.00     0.084 H 
ENDBRANCH  49  52
ENDBRANCH  47  49
BRANCH  47  63
ATOM     63  C   MOL d          36.264  42.221  -5.030  0.00  0.00     0.197 C 
ATOM     64  O   MOL d          35.094  42.136  -5.448  0.00  0.00    -0.646 OA
ATOM     65  OXT MOL d          37.181  42.710  -5.684  0.00  0.00    -0.646 OA
ENDBRANCH  47  63
ENDBRANCH  45  47
ENDBRANCH   1  43
TORSDOF 13
ENDMDL
MODEL 7
REMARK VINA RESULT:      -6.9      1.844      7.139
REMARK  13 active torsions:
REMARK  status: ('A' for Active; 'I' for Inactive)
REMARK    1  A    between atoms: CA_2  and  N_1 
REMARK    2  A    between atoms: P_3  and  CA_2 
REMARK    3  A    between atoms: CA_2  and  CB_6 
REMARK    4  A    between atoms: CM_13  and  P_3 
REMARK    5  A    between atoms: CB_6  and  CG_7 
REMARK    6  A    between atoms: CA_14  and  CM_13 
REMARK    7  A    between atoms: CA_14  and  CB_15 
REMARK    8  A    between atoms: C_22  and  CA_14 
REMARK    9  A    between atoms: CB_15  and  CG_16 
REMARK       I    between atoms: C_22  and  N_24 
REMARK   10  A    between atoms: N_24  and  CA_25 
REMARK   11  A    between atoms: CA_25  and  CB_28 
REMARK   12  A    between atoms: CA_25  and  C_26 
REMARK   13  A    between atoms: CB_28  and  CG_29 
ROOT
ATOM      1  CA  MOL d          35.469  39.031  -6.926  0.00  0.00     0.036 C 
ATOM      2  H14 MOL d          34.647  38.482  -6.444  0.00  0.00     0.056 H 
ENDROOT
BRANCH   1   3
ATOM      3  CM  MOL d          36.064  39.967  -5.856  0.00  0.00     0.021 C 
ATOM      4  H12 MOL d          35.810  39.553  -4.869  0.00  0.00     0.050 H 
ATOM      5  H13 MOL d          37.157  39.970  -5.983  0.00  0.00     0.050 H 
BRANCH   3   6
ATOM      6  P   MOL d          35.513  41.638  -5.897  0.00  0.00     0.138 P 
ATOM      7  O1P MOL d          34.061  41.704  -6.263  0.00  0.00    -0.666 OA
ATOM      8  O2P MOL d          36.245  42.446  -6.894  0.00  0.00    -0.666 OA
BRANCH   6   9
ATOM      9  CA  MOL d          35.956  42.092  -4.300  0.00  0.00     0.177 C 
ATOM     10  H4  MOL d          36.098  43.181  -4.359  0.00  0.00     0.101 H 
BRANCH   9  11
ATOM     11  N   MOL d          34.851  41.797  -3.360  0.00  0.00    -0.065 N 
ATOM     12  H1  MOL d          35.148  41.999  -2.418  0.00  0.00     0.275 HD
ATOM     13  H2  MOL d          34.601  40.823  -3.431  0.00  0.00     0.275 HD
ATOM     14  H3  MOL d          34.053  42.367  -3.590  0.00  0.00     0.275 HD
ENDBRANCH   9  11
BRANCH   9  15
ATOM     15  CB  MOL d          37.108  41.578  -3.542  0.00  0.00    -0.005 C 
ATOM     16  H5  MOL d          38.026  41.817  -4.099  0.00  0.00     0.044 H 
ATOM     17  H6  MOL d          37.008  40.487  -3.451  0.00  0.00     0.044 H 
BRANCH  15  18
ATOM     18  CG  MOL d          37.224  42.171  -2.142  0.00  0.00    -0.056 A 
ATOM     19  CD1 MOL d          37.015  41.320  -1.047  0.00  0.00    -0.077 A 
ATOM     20  CE1 MOL d          37.118  41.913   0.215  0.00  0.00    -0.082 A 
ATOM     21  H7  MOL d          36.788  40.268  -1.171  0.00  0.00     0.084 H 
ATOM     22  CZ  MOL d          37.429  43.253   0.394  0.00  0.00    -0.083 A 
ATOM     23  H9  MOL d          36.947  41.299   1.092  0.00  0.00     0.083 H 
ATOM     24  CE2 MOL d          37.616  44.026  -0.734  0.00  0.00    -0.082 A 
ATOM     25  H11 MOL d          37.521  43.679   1.386  0.00  0.00     0.083 H 
ATOM     26  CD2 MOL d          37.486  43.512  -1.953  0.00  0.00    -0.077 A 
ATOM     27  H10 MOL d          37.874  45.073  -0.623  0.00  0.00     0.083 H 
ATOM     28  H8  MOL d          37.589  44.159  -2.817  0.00  0.00     0.084 H 
ENDBRANCH  15  18
ENDBRANCH   9  15
ENDBRANCH   6   9
ENDBRANCH   3   6
ENDBRANCH   1   3
BRANCH   1  29
ATOM     29  CB  MOL d          34.861  39.876  -8.060  0.00  0.00    -0.029 C 
ATOM     30  H15 MOL d          35.566  39.863  -8.905  0.00  0.00     0.041 H 
ATOM     31  H16 MOL d          34.750  40.906  -7.690  0.00  0.00     0.041 H 
BRANCH  29  32
ATOM     32  CG  MOL d          33.514  39.419  -8.574  0.00  0.00    -0.057 A 
ATOM     33  CD1 MOL d          32.810  38.406  -7.941  0.00  0.00    -0.077 A 
ATOM     34  CE1 MOL d          31.583  37.981  -8.412  0.00  0.00    -0.082 A 
ATOM     35  H17 MOL d          33.231  37.937  -7.059  0.00  0.00     0.084 H 
ATOM     36  CZ  MOL d          31.051  38.590  -9.532  0.00  0.00    -0.083 A 
ATOM     37  H19 MOL d          31.047  37.183  -7.911  0.00  0.00     0.083 H 
ATOM     38  CE2 MOL d          31.745  39.602 -10.175  0.00  0.00    -0.082 A 
ATOM     39  H21 MOL d          30.086  38.275  -9.910  0.00  0.00     0.083 H 
ATOM     40  CD2 MOL d          32.957  40.039  -9.680  0.00  0.00    -0.077 A 
ATOM     41  H20 MOL d          31.334  40.053 -11.071  0.00  0.00     0.083 H 
ATOM     42  H18 MOL d          33.472  40.866 -10.156  0.00  0.00     0.084 H 
ENDBRANCH  29  32
ENDBRANCH   1  29
BRANCH   1  43
ATOM     43  C   MOL d          36.429  37.971  -7.481  0.00  0.00     0.223 C 
ATOM     44  O   MOL d          36.497  37.680  -8.671  0.00  0.00    -0.273 OA
ATOM     45  N   MOL d          37.199  37.411  -6.578  0.00  0.00    -0.346 N 
ATOM     46  H22 MOL d          37.070  37.790  -5.662  0.00  0.00     0.163 HD
BRANCH  45  47
ATOM     47  CA  MOL d          38.194  36.360  -6.622  0.00  0.00     0.100 C 
ATOM     48  H23 MOL d          38.745  36.390  -7.574  0.00  0.00     0.090 H 
BRANCH  47  49
ATOM     49  CB  MOL d          39.145  36.593  -5.482  0.00  0.00    -0.013 C 
ATOM     50  H24 MOL d          39.760  37.452  -5.790  0.00  0.00     0.043 H 
ATOM     51  H25 MOL d          39.772  35.691  -5.440  0.00  0.00     0.043 H 
BRANCH  49  52
ATOM     52  CG  MOL d          38.764  36.872  -4.066  0.00  0.00    -0.056 A 
ATOM     53  CD1 MOL d          38.752  38.156  -3.559  0.00  0.00    -0.077 A 
ATOM     54  CE1 MOL d          38.380  38.441  -2.258  0.00  0.00    -0.082 A 
ATOM     55  H26 MOL d          39.047  38.973  -4.207  0.00  0.00     0.084 H 
ATOM     56  CZ  MOL d          38.007  37.393  -1.433  0.00  0.00    -0.083 A 
ATOM     57  H28 MOL d          38.379  39.461  -1.892  0.00  0.00     0.083 H 
ATOM     58  CE2 MOL d          38.017  36.095  -1.919  0.00  0.00    -0.082 A 
ATOM     59  H30 MOL d          37.709  37.588  -0.409  0.00  0.00     0.083 H 
ATOM     60  CD2 MOL d          38.387  35.833  -3.224  0.00  0.00    -0.077 A 
ATOM     61  H29 MOL d          37.730  35.277  -1.268  0.00  0.00     0.083 H 
ATOM     62  H27 MOL d          38.383  34.813  -3.592  0.00  0.00     0.084 H 
ENDBRANCH  49  52
ENDBRANCH  47  49
BRANCH  47  63
ATOM     63  C   MOL d          37.459  35.023  -6.498  0.00  0.00     0.197 C 
ATOM     64  O   MOL d          36.315  35.030  -6.008  0.00  0.00    -0.646 OA
ATOM     65  OXT MOL d          38.020  34.004  -6.892  0.00  0.00    -0.646 OA
ENDBRANCH  47  63
ENDBRANCH  45  47
ENDBRANCH   1  43
TORSDOF 13
ENDMDL
MODEL 8
REMARK VINA RESULT:      -6.6      3.499      8.484
REMARK  13 active torsions:
REMARK  status: ('A' for Active; 'I' for Inactive)
REMARK    1  A    between atoms: CA_2  and  N_1 
REMARK    2  A    between atoms: P_3  and  CA_2 
REMARK    3  A    between atoms: CA_2  and  CB_6 
REMARK    4  A    between atoms: CM_13  and  P_3 
REMARK    5  A    between atoms: CB_6  and  CG_7 
REMARK    6  A    between atoms: CA_14  and  CM_13 
REMARK    7  A    between atoms: CA_14  and  CB_15 
REMARK    8  A    between atoms: C_22  and  CA_14 
REMARK    9  A    between atoms: CB_15  and  CG_16 
REMARK       I    between atoms: C_22  and  N_24 
REMARK   10  A    between atoms: N_24  and  CA_25 
REMARK   11  A    between atoms: CA_25  and  CB_28 
REMARK   12  A    between atoms: CA_25  and  C_26 
REMARK   13  A    between atoms: CB_28  and  CG_29 
ROOT
ATOM      1  CA  MOL d          35.213  40.402  -6.236  0.00  0.00     0.036 C 
ATOM      2  H14 MOL d          34.347  40.843  -5.720  0.00  0.00     0.056 H 
ENDROOT
BRANCH   1   3
ATOM      3  CM  MOL d          36.397  40.468  -5.251  0.00  0.00     0.021 C 
ATOM      4  H12 MOL d          36.287  39.637  -4.538  0.00  0.00     0.050 H 
ATOM      5  H13 MOL d          37.323  40.336  -5.829  0.00  0.00     0.050 H 
BRANCH   3   6
ATOM      6  P   MOL d          36.549  41.955  -4.322  0.00  0.00     0.138 P 
ATOM      7  O1P MOL d          35.782  43.065  -4.978  0.00  0.00    -0.666 OA
ATOM      8  O2P MOL d          37.950  42.407  -4.213  0.00  0.00    -0.666 OA
BRANCH   6   9
ATOM      9  CA  MOL d          35.975  41.372  -2.811  0.00  0.00     0.177 C 
ATOM     10  H4  MOL d          35.204  40.636  -3.082  0.00  0.00     0.101 H 
BRANCH   9  11
ATOM     11  N   MOL d          37.064  40.688  -2.079  0.00  0.00    -0.065 N 
ATOM     12  H1  MOL d          36.911  40.778  -1.087  0.00  0.00     0.275 HD
ATOM     13  H2  MOL d          37.947  41.109  -2.322  0.00  0.00     0.275 HD
ATOM     14  H3  MOL d          37.076  39.712  -2.330  0.00  0.00     0.275 HD
ENDBRANCH   9  11
BRANCH   9  15
ATOM     15  CB  MOL d          35.389  42.188  -1.735  0.00  0.00    -0.005 C 
ATOM     16  H5  MOL d          34.823  41.525  -1.064  0.00  0.00     0.044 H 
ATOM     17  H6  MOL d          34.706  42.922  -2.187  0.00  0.00     0.044 H 
BRANCH  15  18
ATOM     18  CG  MOL d          36.429  42.939  -0.911  0.00  0.00    -0.056 A 
ATOM     19  CD1 MOL d          36.897  42.337   0.266  0.00  0.00    -0.077 A 
ATOM     20  CE1 MOL d          37.839  43.070   0.994  0.00  0.00    -0.082 A 
ATOM     21  H7  MOL d          36.550  41.363   0.591  0.00  0.00     0.084 H 
ATOM     22  CZ  MOL d          38.311  44.308   0.582  0.00  0.00    -0.083 A 
ATOM     23  H9  MOL d          38.217  42.653   1.921  0.00  0.00     0.083 H 
ATOM     24  CE2 MOL d          37.798  44.835  -0.585  0.00  0.00    -0.082 A 
ATOM     25  H11 MOL d          39.056  44.843   1.158  0.00  0.00     0.083 H 
ATOM     26  CD2 MOL d          36.870  44.190  -1.286  0.00  0.00    -0.077 A 
ATOM     27  H10 MOL d          38.159  45.795  -0.938  0.00  0.00     0.083 H 
ATOM     28  H8  MOL d          36.452  44.658  -2.171  0.00  0.00     0.084 H 
ENDBRANCH  15  18
ENDBRANCH   9  15
ENDBRANCH   6   9
ENDBRANCH   3   6
ENDBRANCH   1   3
BRANCH   1  29
ATOM     29  CB  MOL d          35.521  41.280  -7.461  0.00  0.00    -0.029 C 
ATOM     30  H15 MOL d          36.257  40.748  -8.081  0.00  0.00     0.041 H 
ATOM     31  H16 MOL d          35.960  42.222  -7.098  0.00  0.00     0.041 H 
BRANCH  29  32
ATOM     32  CG  MOL d          34.339  41.627  -8.339  0.00  0.00    -0.057 A 
ATOM     33  CD1 MOL d          34.040  40.880  -9.468  0.00  0.00    -0.077 A 
ATOM     34  CE1 MOL d          32.966  41.198 -10.276  0.00  0.00    -0.082 A 
ATOM     35  H17 MOL d          34.662  40.029  -9.721  0.00  0.00     0.084 H 
ATOM     36  CZ  MOL d          32.174  42.279  -9.938  0.00  0.00    -0.083 A 
ATOM     37  H19 MOL d          32.748  40.609 -11.159  0.00  0.00     0.083 H 
ATOM     38  CE2 MOL d          32.464  43.035  -8.814  0.00  0.00    -0.082 A 
ATOM     39  H21 MOL d          31.323  42.537 -10.556  0.00  0.00     0.083 H 
ATOM     40  CD2 MOL d          33.522  42.692  -7.997  0.00  0.00    -0.077 A 
ATOM     41  H20 MOL d          31.855  43.900  -8.575  0.00  0.00     0.083 H 
ATOM     42  H18 MOL d          33.713  43.255  -7.091  0.00  0.00     0.084 H 
ENDBRANCH  29  32
ENDBRANCH   1  29
BRANCH   1  43
ATOM     43  C   MOL d          34.789  38.990  -6.661  0.00  0.00     0.223 C 
ATOM     44  O   MOL d          33.706  38.495  -6.365  0.00  0.00    -0.273 OA
ATOM     45  N   MOL d          35.674  38.355  -7.392  0.00  0.00    -0.346 N 
ATOM     46  H22 MOL d          36.482  38.906  -7.598  0.00  0.00     0.163 HD
BRANCH  45  47
ATOM     47  CA  MOL d          35.731  37.027  -7.966  0.00  0.00     0.100 C 
ATOM     48  H23 MOL d          35.577  36.264  -7.189  0.00  0.00     0.090 H 
BRANCH  47  49
ATOM     49  CB  MOL d          34.635  36.932  -8.990  0.00  0.00    -0.013 C 
ATOM     50  H24 MOL d          35.123  36.550  -9.900  0.00  0.00     0.043 H 
ATOM     51  H25 MOL d          34.306  37.967  -9.158  0.00  0.00     0.043 H 
BRANCH  49  52
ATOM     52  CG  MOL d          33.378  36.138  -8.857  0.00  0.00    -0.056 A 
ATOM     53  CD1 MOL d          32.299  36.347  -9.692  0.00  0.00    -0.077 A 
ATOM     54  CE1 MOL d          31.133  35.607  -9.603  0.00  0.00    -0.082 A 
ATOM     55  H26 MOL d          32.369  37.121 -10.448  0.00  0.00     0.084 H 
ATOM     56  CZ  MOL d          31.048  34.622  -8.635  0.00  0.00    -0.083 A 
ATOM     57  H28 MOL d          30.305  35.795 -10.277  0.00  0.00     0.083 H 
ATOM     58  CE2 MOL d          32.117  34.399  -7.781  0.00  0.00    -0.082 A 
ATOM     59  H30 MOL d          30.146  34.027  -8.544  0.00  0.00     0.083 H 
ATOM     60  CD2 MOL d          33.275  35.145  -7.891  0.00  0.00    -0.077 A 
ATOM     61  H29 MOL d          32.044  33.631  -7.020  0.00  0.00     0.083 H 
ATOM     62  H27 MOL d          34.105  34.954  -7.220  0.00  0.00     0.084 H 
ENDBRANCH  49  52
ENDBRANCH  47  49
BRANCH  47  63
ATOM     63  C   MOL d          37.120  36.853  -8.586  0.00  0.00     0.197 C 
ATOM     64  O   MOL d          37.917  36.078  -8.025  0.00  0.00    -0.646 OA
ATOM     65  OXT MOL d          37.389  37.473  -9.611  0.00  0.00    -0.646 OA
ENDBRANCH  47  63
ENDBRANCH  45  47
ENDBRANCH   1  43
TORSDOF 13
ENDMDL
MODEL 9
REMARK VINA RESULT:      -6.6      2.681      6.320
REMARK  13 active torsions:
REMARK  status: ('A' for Active; 'I' for Inactive)
REMARK    1  A    between atoms: CA_2  and  N_1 
REMARK    2  A    between atoms: P_3  and  CA_2 
REMARK    3  A    between atoms: CA_2  and  CB_6 
REMARK    4  A    between atoms: CM_13  and  P_3 
REMARK    5  A    between atoms: CB_6  and  CG_7 
REMARK    6  A    between atoms: CA_14  and  CM_13 
REMARK    7  A    between atoms: CA_14  and  CB_15 
REMARK    8  A    between atoms: C_22  and  CA_14 
REMARK    9  A    between atoms: CB_15  and  CG_16 
REMARK       I    between atoms: C_22  and  N_24 
REMARK   10  A    between atoms: N_24  and  CA_25 
REMARK   11  A    between atoms: CA_25  and  CB_28 
REMARK   12  A    between atoms: CA_25  and  C_26 
REMARK   13  A    between atoms: CB_28  and  CG_29 
ROOT
ATOM      1  CA  MOL d          37.904  36.578  -5.967  0.00  0.00     0.036 C 
ATOM      2  H14 MOL d          36.930  36.737  -5.482  0.00  0.00     0.056 H 
ENDROOT
BRANCH   1   3
ATOM      3  CM  MOL d          37.666  36.690  -7.486  0.00  0.00     0.021 C 
ATOM      4  H12 MOL d          38.008  37.685  -7.807  0.00  0.00     0.050 H 
ATOM      5  H13 MOL d          38.272  35.917  -7.979  0.00  0.00     0.050 H 
BRANCH   3   6
ATOM      6  P   MOL d          36.002  36.494  -8.024  0.00  0.00     0.138 P 
ATOM      7  O1P MOL d          35.151  35.950  -6.916  0.00  0.00    -0.666 OA
ATOM      8  O2P MOL d          35.886  35.553  -9.156  0.00  0.00    -0.666 OA
BRANCH   6   9
ATOM      9  CA  MOL d          35.708  38.107  -8.538  0.00  0.00     0.177 C 
ATOM     10  H4  MOL d          36.539  38.683  -8.107  0.00  0.00     0.101 H 
BRANCH   9  11
ATOM     11  N   MOL d          35.772  38.193 -10.015  0.00  0.00    -0.065 N 
ATOM     12  H1  MOL d          36.596  38.706 -10.286  0.00  0.00     0.275 HD
ATOM     13  H2  MOL d          34.952  38.667 -10.359  0.00  0.00     0.275 HD
ATOM     14  H3  MOL d          35.812  37.264 -10.404  0.00  0.00     0.275 HD
ENDBRANCH   9  11
BRANCH   9  15
ATOM     15  CB  MOL d          34.493  38.893  -8.269  0.00  0.00    -0.005 C 
ATOM     16  H5  MOL d          33.760  38.242  -7.772  0.00  0.00     0.044 H 
ATOM     17  H6  MOL d          34.084  39.242  -9.227  0.00  0.00     0.044 H 
BRANCH  15  18
ATOM     18  CG  MOL d          34.744  40.106  -7.379  0.00  0.00    -0.056 A 
ATOM     19  CD1 MOL d          34.167  41.328  -7.754  0.00  0.00    -0.077 A 
ATOM     20  CE1 MOL d          34.437  42.414  -6.915  0.00  0.00    -0.082 A 
ATOM     21  H7  MOL d          33.549  41.425  -8.639  0.00  0.00     0.084 H 
ATOM     22  CZ  MOL d          35.207  42.304  -5.766  0.00  0.00    -0.083 A 
ATOM     23  H9  MOL d          34.026  43.383  -7.173  0.00  0.00     0.083 H 
ATOM     24  CE2 MOL d          35.743  41.068  -5.468  0.00  0.00    -0.082 A 
ATOM     25  H11 MOL d          35.382  43.159  -5.125  0.00  0.00     0.083 H 
ATOM     26  CD2 MOL d          35.546  40.019  -6.262  0.00  0.00    -0.077 A 
ATOM     27  H10 MOL d          36.338  40.950  -4.569  0.00  0.00     0.083 H 
ATOM     28  H8  MOL d          36.026  39.076  -6.024  0.00  0.00     0.084 H 
ENDBRANCH  15  18
ENDBRANCH   9  15
ENDBRANCH   6   9
ENDBRANCH   3   6
ENDBRANCH   1   3
BRANCH   1  29
ATOM     29  CB  MOL d          38.364  35.150  -5.629  0.00  0.00    -0.029 C 
ATOM     30  H15 MOL d          39.264  34.935  -6.224  0.00  0.00     0.041 H 
ATOM     31  H16 MOL d          37.559  34.458  -5.919  0.00  0.00     0.041 H 
BRANCH  29  32
ATOM     32  CG  MOL d          38.698  34.891  -4.176  0.00  0.00    -0.057 A 
ATOM     33  CD1 MOL d          37.719  34.940  -3.195  0.00  0.00    -0.077 A 
ATOM     34  CE1 MOL d          38.022  34.711  -1.867  0.00  0.00    -0.082 A 
ATOM     35  H17 MOL d          36.697  35.162  -3.476  0.00  0.00     0.084 H 
ATOM     36  CZ  MOL d          39.327  34.420  -1.520  0.00  0.00    -0.083 A 
ATOM     37  H19 MOL d          37.248  34.760  -1.109  0.00  0.00     0.083 H 
ATOM     38  CE2 MOL d          40.315  34.370  -2.491  0.00  0.00    -0.082 A 
ATOM     39  H21 MOL d          39.580  34.229  -0.484  0.00  0.00     0.083 H 
ATOM     40  CD2 MOL d          39.997  34.571  -3.819  0.00  0.00    -0.077 A 
ATOM     41  H20 MOL d          41.341  34.171  -2.205  0.00  0.00     0.083 H 
ATOM     42  H18 MOL d          40.763  34.480  -4.580  0.00  0.00     0.084 H 
ENDBRANCH  29  32
ENDBRANCH   1  29
BRANCH   1  43
ATOM     43  C   MOL d          38.858  37.622  -5.373  0.00  0.00     0.223 C 
ATOM     44  O   MOL d          39.997  37.809  -5.791  0.00  0.00    -0.273 OA
ATOM     45  N   MOL d          38.350  38.324  -4.388  0.00  0.00    -0.346 N 
ATOM     46  H22 MOL d          37.395  38.098  -4.197  0.00  0.00     0.163 HD
BRANCH  45  47
ATOM     47  CA  MOL d          38.875  39.355  -3.518  0.00  0.00     0.100 C 
ATOM     48  H23 MOL d          39.116  40.260  -4.094  0.00  0.00     0.090 H 
BRANCH  47  49
ATOM     49  CB  MOL d          37.811  39.671  -2.504  0.00  0.00    -0.013 C 
ATOM     50  H24 MOL d          38.108  39.127  -1.595  0.00  0.00     0.043 H 
ATOM     51  H25 MOL d          36.888  39.233  -2.908  0.00  0.00     0.043 H 
BRANCH  49  52
ATOM     52  CG  MOL d          37.425  41.035  -2.035  0.00  0.00    -0.056 A 
ATOM     53  CD1 MOL d          37.781  42.169  -2.737  0.00  0.00    -0.077 A 
ATOM     54  CE1 MOL d          37.415  43.441  -2.335  0.00  0.00    -0.082 A 
ATOM     55  H26 MOL d          38.372  42.058  -3.639  0.00  0.00     0.084 H 
ATOM     56  CZ  MOL d          36.663  43.578  -1.181  0.00  0.00    -0.083 A 
ATOM     57  H28 MOL d          37.709  44.311  -2.911  0.00  0.00     0.083 H 
ATOM     58  CE2 MOL d          36.299  42.454  -0.456  0.00  0.00    -0.082 A 
ATOM     59  H30 MOL d          36.361  44.563  -0.844  0.00  0.00     0.083 H 
ATOM     60  CD2 MOL d          36.671  41.192  -0.879  0.00  0.00    -0.077 A 
ATOM     61  H29 MOL d          35.716  42.566   0.450  0.00  0.00     0.083 H 
ATOM     62  H27 MOL d          36.373  40.321  -0.305  0.00  0.00     0.084 H 
ENDBRANCH  49  52
ENDBRANCH  47  49
BRANCH  47  63
ATOM     63  C   MOL d          40.148  38.807  -2.869  0.00  0.00     0.197 C 
ATOM     64  O   MOL d          40.034  37.858  -2.071  0.00  0.00    -0.646 OA
ATOM     65  OXT MOL d          41.226  39.315  -3.165  0.00  0.00    -0.646 OA
ENDBRANCH  47  63
ENDBRANCH  45  47
ENDBRANCH   1  43
TORSDOF 13
ENDMDL
MODEL 10
REMARK VINA RESULT:      -6.4      2.464      8.149
REMARK  13 active torsions:
REMARK  status: ('A' for Active; 'I' for Inactive)
REMARK    1  A    between atoms: CA_2  and  N_1 
REMARK    2  A    between atoms: P_3  and  CA_2 
REMARK    3  A    between atoms: CA_2  and  CB_6 
REMARK    4  A    between atoms: CM_13  and  P_3 
REMARK    5  A    between atoms: CB_6  and  CG_7 
REMARK    6  A    between atoms: CA_14  and  CM_13 
REMARK    7  A    between atoms: CA_14  and  CB_15 
REMARK    8  A    between atoms: C_22  and  CA_14 
REMARK    9  A    between atoms: CB_15  and  CG_16 
REMARK       I    between atoms: C_22  and  N_24 
REMARK   10  A    between atoms: N_24  and  CA_25 
REMARK   11  A    between atoms: CA_25  and  CB_28 
REMARK   12  A    between atoms: CA_25  and  C_26 
REMARK   13  A    between atoms: CB_28  and  CG_29 
ROOT
ATOM      1  CA  MOL d          37.747  38.843  -5.190  0.00  0.00     0.036 C 
ATOM      2  H14 MOL d          38.655  39.356  -5.539  0.00  0.00     0.056 H 
ENDROOT
BRANCH   1   3
ATOM      3  CM  MOL d          36.851  39.918  -4.544  0.00  0.00     0.021 C 
ATOM      4  H12 MOL d          36.537  40.614  -5.336  0.00  0.00     0.050 H 
ATOM      5  H13 MOL d          35.966  39.413  -4.128  0.00  0.00     0.050 H 
BRANCH   3   6
ATOM      6  P   MOL d          37.585  40.865  -3.255  0.00  0.00     0.138 P 
ATOM      7  O1P MOL d          38.923  41.389  -3.685  0.00  0.00    -0.666 OA
ATOM      8  O2P MOL d          37.808  40.069  -2.031  0.00  0.00    -0.666 OA
BRANCH   6   9
ATOM      9  CA  MOL d          36.319  42.003  -3.022  0.00  0.00     0.177 C 
ATOM     10  H4  MOL d          36.699  42.927  -3.483  0.00  0.00     0.101 H 
BRANCH   9  11
ATOM     11  N   MOL d          35.100  41.568  -3.739  0.00  0.00    -0.065 N 
ATOM     12  H1  MOL d          35.358  41.169  -4.628  0.00  0.00     0.275 HD
ATOM     13  H2  MOL d          34.498  42.362  -3.890  0.00  0.00     0.275 HD
ATOM     14  H3  MOL d          34.616  40.876  -3.189  0.00  0.00     0.275 HD
ENDBRANCH   9  11
BRANCH   9  15
ATOM     15  CB  MOL d          35.748  42.409  -1.727  0.00  0.00    -0.005 C 
ATOM     16  H5  MOL d          35.489  41.502  -1.161  0.00  0.00     0.044 H 
ATOM     17  H6  MOL d          34.838  42.996  -1.916  0.00  0.00     0.044 H 
BRANCH  15  18
ATOM     18  CG  MOL d          36.699  43.251  -0.884  0.00  0.00    -0.056 A 
ATOM     19  CD1 MOL d          36.916  44.583  -1.266  0.00  0.00    -0.077 A 
ATOM     20  CE1 MOL d          37.806  45.309  -0.469  0.00  0.00    -0.082 A 
ATOM     21  H7  MOL d          36.423  45.022  -2.125  0.00  0.00     0.084 H 
ATOM     22  CZ  MOL d          38.430  44.770   0.647  0.00  0.00    -0.083 A 
ATOM     23  H9  MOL d          38.019  46.338  -0.736  0.00  0.00     0.083 H 
ATOM     24  CE2 MOL d          38.168  43.451   0.954  0.00  0.00    -0.082 A 
ATOM     25  H11 MOL d          39.099  45.365   1.256  0.00  0.00     0.083 H 
ATOM     26  CD2 MOL d          37.360  42.712   0.200  0.00  0.00    -0.077 A 
ATOM     27  H10 MOL d          38.630  43.008   1.830  0.00  0.00     0.083 H 
ATOM     28  H8  MOL d          37.218  41.664   0.441  0.00  0.00     0.084 H 
ENDBRANCH  15  18
ENDBRANCH   9  15
ENDBRANCH   6   9
ENDBRANCH   3   6
ENDBRANCH   1   3
BRANCH   1  29
ATOM     29  CB  MOL d          38.171  37.824  -4.119  0.00  0.00    -0.029 C 
ATOM     30  H15 MOL d          37.395  37.046  -4.067  0.00  0.00     0.041 H 
ATOM     31  H16 MOL d          38.227  38.351  -3.155  0.00  0.00     0.041 H 
BRANCH  29  32
ATOM     32  CG  MOL d          39.499  37.138  -4.350  0.00  0.00    -0.057 A 
ATOM     33  CD1 MOL d          40.639  37.864  -4.659  0.00  0.00    -0.077 A 
ATOM     34  CE1 MOL d          41.851  37.241  -4.879  0.00  0.00    -0.082 A 
ATOM     35  H17 MOL d          40.576  38.944  -4.730  0.00  0.00     0.084 H 
ATOM     36  CZ  MOL d          41.921  35.864  -4.777  0.00  0.00    -0.083 A 
ATOM     37  H19 MOL d          42.733  37.821  -5.126  0.00  0.00     0.083 H 
ATOM     38  CE2 MOL d          40.790  35.126  -4.471  0.00  0.00    -0.082 A 
ATOM     39  H21 MOL d          42.867  35.360  -4.938  0.00  0.00     0.083 H 
ATOM     40  CD2 MOL d          39.589  35.761  -4.226  0.00  0.00    -0.077 A 
ATOM     41  H20 MOL d          40.848  34.045  -4.425  0.00  0.00     0.083 H 
ATOM     42  H18 MOL d          38.719  35.184  -3.936  0.00  0.00     0.084 H 
ENDBRANCH  29  32
ENDBRANCH   1  29
BRANCH   1  43
ATOM     43  C   MOL d          37.150  38.141  -6.416  0.00  0.00     0.223 C 
ATOM     44  O   MOL d          37.583  37.083  -6.864  0.00  0.00    -0.273 OA
ATOM     45  N   MOL d          36.115  38.751  -6.942  0.00  0.00    -0.346 N 
ATOM     46  H22 MOL d          35.843  39.570  -6.436  0.00  0.00     0.163 HD
BRANCH  45  47
ATOM     47  CA  MOL d          35.281  38.496  -8.098  0.00  0.00     0.100 C 
ATOM     48  H23 MOL d          35.824  37.892  -8.839  0.00  0.00     0.090 H 
BRANCH  47  49
ATOM     49  CB  MOL d          34.072  37.740  -7.621  0.00  0.00    -0.013 C 
ATOM     50  H24 MOL d          33.211  38.272  -8.053  0.00  0.00     0.043 H 
ATOM     51  H25 MOL d          34.068  37.862  -6.529  0.00  0.00     0.043 H 
BRANCH  49  52
ATOM     52  CG  MOL d          33.796  36.292  -7.855  0.00  0.00    -0.056 A 
ATOM     53  CD1 MOL d          34.740  35.457  -8.416  0.00  0.00    -0.077 A 
ATOM     54  CE1 MOL d          34.515  34.107  -8.620  0.00  0.00    -0.082 A 
ATOM     55  H26 MOL d          35.696  35.875  -8.710  0.00  0.00     0.084 H 
ATOM     56  CZ  MOL d          33.292  33.577  -8.248  0.00  0.00    -0.083 A 
ATOM     57  H28 MOL d          35.280  33.478  -9.062  0.00  0.00     0.083 H 
ATOM     58  CE2 MOL d          32.326  34.398  -7.686  0.00  0.00    -0.082 A 
ATOM     59  H30 MOL d          33.090  32.522  -8.394  0.00  0.00     0.083 H 
ATOM     60  CD2 MOL d          32.573  35.743  -7.486  0.00  0.00    -0.077 A 
ATOM     61  H29 MOL d          31.367  33.981  -7.402  0.00  0.00     0.083 H 
ATOM     62  H27 MOL d          31.811  36.371  -7.041  0.00  0.00     0.084 H 
ENDBRANCH  49  52
ENDBRANCH  47  49
BRANCH  47  63
ATOM     63  C   MOL d          34.913  39.850  -8.709  0.00  0.00     0.197 C 
ATOM     64  O   MOL d          33.990  39.882  -9.544  0.00  0.00    -0.646 OA
ATOM     65  OXT MOL d          35.533  40.847  -8.348  0.00  0.00    -0.646 OA
ENDBRANCH  47  63
ENDBRANCH  45  47
ENDBRANCH   1  43
TORSDOF 13
ENDMDL
