MODEL 1
REMARK VINA RESULT:      -9.0      0.000      0.000
REMARK  8 active torsions:
REMARK  status: ('A' for Active; 'I' for Inactive)
REMARK    1  A    between atoms: CA_4  and  C_1 
REMARK    2  A    between atoms: N_2  and  CA_4 
REMARK    3  A    between atoms: OAR_19  and  CAA_5 
REMARK    4  A    between atoms: NAQ_18  and  CAO_17 
REMARK    5  A    between atoms: CAO_17  and  CAV_22 
REMARK    6  A    between atoms: SBC_28  and  NAQ_18 
REMARK    7  A    between atoms: CAU_21  and  OAR_19 
REMARK    8  A    between atoms: CAW_23  and  SBC_28 
ROOT
ATOM      1  N   FG5 d           0.995  -9.649  33.692  0.00  0.00    -0.338 N 
ATOM      2  CAH FG5 d           1.725  -8.706  30.244  0.00  0.00    -0.049 A 
ATOM      3  CAK FG5 d           1.365  -8.568  31.571  0.00  0.00    -0.054 A 
ATOM      4  CAL FG5 d           1.958 -11.072  30.732  0.00  0.00    -0.039 A 
ATOM      5  CAM FG5 d           1.459 -11.710  33.058  0.00  0.00    -0.047 A 
ATOM      6  CAU FG5 d           2.028  -9.994  29.827  0.00  0.00     0.069 A 
ATOM      7  CAV FG5 d           1.098 -10.923  34.082  0.00  0.00     0.032 A 
ATOM      8  CAY FG5 d           1.598 -10.881  32.015  0.00  0.00    -0.005 A 
ATOM      9  CBA FG5 d           1.315  -9.619  32.411  0.00  0.00     0.045 A 
ATOM     10  H8  FG5 d           1.767  -7.859  29.569  0.00  0.00     0.087 H 
ATOM     11  H11 FG5 d           1.117  -7.582  31.948  0.00  0.00     0.087 H 
ATOM     12  H12 FG5 d           2.198 -12.071  30.389  0.00  0.00     0.089 H 
ATOM     13  H13 FG5 d           1.606 -12.789  33.072  0.00  0.00     0.088 H 
ENDROOT
BRANCH   7  14
ATOM     14  CAO FG5 d           0.797 -11.327  35.547  0.00  0.00     0.041 C 
ATOM     15  H15 FG5 d          -0.046 -10.718  35.904  0.00  0.00     0.074 H 
ATOM     16  H16 FG5 d           0.512 -12.389  35.557  0.00  0.00     0.074 H 
BRANCH  14  17
ATOM     17  NAQ FG5 d           1.919 -11.146  36.480  0.00  0.00    -0.308 N 
ATOM     18  H17 FG5 d           2.772 -10.671  36.260  0.00  0.00     0.172 HD
BRANCH  17  19
ATOM     19  SBC FG5 d           1.547 -11.901  38.079  0.00  0.00     0.281 S 
ATOM     20  OAC FG5 d           2.883 -12.122  38.806  0.00  0.00    -0.199 OA
ATOM     21  OAD FG5 d           0.729 -13.204  38.009  0.00  0.00    -0.199 OA
BRANCH  19  22
ATOM     22  CAW FG5 d           0.596 -10.740  39.004  0.00  0.00     0.191 A 
ATOM     23  CAN FG5 d          -0.129  -9.796  38.431  0.00  0.00    -0.025 A 
ATOM     24  CAX FG5 d          -0.734  -9.073  39.364  0.00  0.00     0.001 A 
ATOM     25  H14 FG5 d          -0.216  -9.636  37.358  0.00  0.00     0.090 H 
ATOM     26  CAI FG5 d          -1.553  -8.025  39.233  0.00  0.00    -0.070 A 
ATOM     27  CAZ FG5 d          -0.376  -9.570  40.554  0.00  0.00     0.087 A 
ATOM     28  CAF FG5 d          -2.068  -7.411  40.360  0.00  0.00    -0.082 A 
ATOM     29  H9  FG5 d          -1.814  -7.659  38.247  0.00  0.00     0.084 H 
ATOM     30  CAG FG5 d          -1.694  -7.933  41.596  0.00  0.00    -0.080 A 
ATOM     31  H6  FG5 d          -2.733  -6.558  40.285  0.00  0.00     0.083 H 
ATOM     32  CAJ FG5 d          -0.842  -9.031  41.677  0.00  0.00    -0.049 A 
ATOM     33  H7  FG5 d          -2.072  -7.480  42.506  0.00  0.00     0.083 H 
ATOM     34  H10 FG5 d          -0.562  -9.440  42.640  0.00  0.00     0.087 H 
ATOM     35  OAS FG5 d           0.493 -10.657  40.324  0.00  0.00    -0.296 OA
ENDBRANCH  19  22
ENDBRANCH  17  19
ENDBRANCH  14  17
ENDBRANCH   7  14
BRANCH   1  36
ATOM     36  CA  FG5 d           0.678  -8.328  34.357  0.00  0.00     0.080 C 
ATOM     37  H1  FG5 d           0.504  -7.598  33.552  0.00  0.00     0.081 H 
ATOM     38  H2  FG5 d          -0.252  -8.472  34.928  0.00  0.00     0.081 H 
BRANCH  36  39
ATOM     39  C   FG5 d           1.685  -7.706  35.304  0.00  0.00     0.191 C 
ATOM     40  O   FG5 d           2.182  -6.608  34.919  0.00  0.00    -0.647 OA
ATOM     41  OXT FG5 d           1.906  -8.289  36.387  0.00  0.00    -0.647 OA
ENDBRANCH  36  39
ENDBRANCH   1  36
BRANCH   6  42
ATOM     42  OAR FG5 d           2.374 -10.145  28.534  0.00  0.00    -0.356 OA
BRANCH  42  43
ATOM     43  CAA FG5 d           1.687 -11.187  27.841  0.00  0.00     0.010 C 
ATOM     44  H3  FG5 d           2.329 -11.581  27.041  0.00  0.00     0.066 H 
ATOM     45  H4  FG5 d           0.760 -10.787  27.404  0.00  0.00     0.066 H 
ATOM     46  H5  FG5 d           1.440 -11.995  28.545  0.00  0.00     0.066 H 
ENDBRANCH  42  43
ENDBRANCH   6  42
TORSDOF 8
ENDMDL
MODEL 2
REMARK VINA RESULT:      -8.8      2.078      8.382
REMARK  8 active torsions:
REMARK  status: ('A' for Active; 'I' for Inactive)
REMARK    1  A    between atoms: CA_4  and  C_1 
REMARK    2  A    between atoms: N_2  and  CA_4 
REMARK    3  A    between atoms: OAR_19  and  CAA_5 
REMARK    4  A    between atoms: NAQ_18  and  CAO_17 
REMARK    5  A    between atoms: CAO_17  and  CAV_22 
REMARK    6  A    between atoms: SBC_28  and  NAQ_18 
REMARK    7  A    between atoms: CAU_21  and  OAR_19 
REMARK    8  A    between atoms: CAW_23  and  SBC_28 
ROOT
ATOM      1  N   FG5 d           0.117  -9.780  36.279  0.00  0.00    -0.338 N 
ATOM      2  CAH FG5 d          -0.531  -8.886  39.756  0.00  0.00    -0.049 A 
ATOM      3  CAK FG5 d          -0.491  -8.769  38.380  0.00  0.00    -0.054 A 
ATOM      4  CAL FG5 d           0.501 -11.058  39.431  0.00  0.00    -0.039 A 
ATOM      5  CAM FG5 d           0.945 -11.659  37.084  0.00  0.00    -0.047 A 
ATOM      6  CAU FG5 d          -0.022 -10.064  40.282  0.00  0.00     0.069 A 
ATOM      7  CAV FG5 d           0.674 -10.956  35.975  0.00  0.00     0.032 A 
ATOM      8  CAY FG5 d           0.519 -10.891  38.095  0.00  0.00    -0.005 A 
ATOM      9  CBA FG5 d           0.011  -9.742  37.595  0.00  0.00     0.045 A 
ATOM     10  H8  FG5 d          -0.936  -8.103  40.387  0.00  0.00     0.087 H 
ATOM     11  H11 FG5 d          -0.875  -7.867  37.918  0.00  0.00     0.087 H 
ATOM     12  H12 FG5 d           0.895 -11.972  39.859  0.00  0.00     0.089 H 
ATOM     13  H13 FG5 d           1.410 -12.642  37.148  0.00  0.00     0.088 H 
ENDROOT
BRANCH   7  14
ATOM     14  CAO FG5 d           0.943 -11.344  34.500  0.00  0.00     0.041 C 
ATOM     15  H15 FG5 d           0.206 -12.106  34.207  0.00  0.00     0.074 H 
ATOM     16  H16 FG5 d           0.807 -10.446  33.880  0.00  0.00     0.074 H 
BRANCH  14  17
ATOM     17  NAQ FG5 d           2.286 -11.882  34.237  0.00  0.00    -0.308 N 
ATOM     18  H17 FG5 d           2.550 -12.839  34.363  0.00  0.00     0.172 HD
BRANCH  17  19
ATOM     19  SBC FG5 d           3.394 -10.579  33.656  0.00  0.00     0.281 S 
ATOM     20  OAC FG5 d           4.817 -11.158  33.639  0.00  0.00    -0.199 OA
ATOM     21  OAD FG5 d           3.335  -9.268  34.462  0.00  0.00    -0.199 OA
BRANCH  19  22
ATOM     22  CAW FG5 d           2.931 -10.190  31.999  0.00  0.00     0.191 A 
ATOM     23  CAN FG5 d           2.234 -11.018  31.242  0.00  0.00    -0.025 A 
ATOM     24  CAX FG5 d           2.033 -10.468  30.052  0.00  0.00     0.001 A 
ATOM     25  H14 FG5 d           1.879 -12.001  31.547  0.00  0.00     0.090 H 
ATOM     26  CAI FG5 d           1.385 -10.951  28.987  0.00  0.00    -0.070 A 
ATOM     27  CAZ FG5 d           2.624  -9.267  30.058  0.00  0.00     0.087 A 
ATOM     28  CAF FG5 d           1.307 -10.197  27.830  0.00  0.00    -0.082 A 
ATOM     29  H9  FG5 d           0.922 -11.930  29.031  0.00  0.00     0.084 H 
ATOM     30  CAG FG5 d           1.921  -8.948  27.843  0.00  0.00    -0.080 A 
ATOM     31  H6  FG5 d           0.791 -10.564  26.951  0.00  0.00     0.083 H 
ATOM     32  CAJ FG5 d           2.578  -8.489  28.981  0.00  0.00    -0.049 A 
ATOM     33  H7  FG5 d           1.887  -8.325  26.956  0.00  0.00     0.083 H 
ATOM     34  H10 FG5 d           3.046  -7.511  28.989  0.00  0.00     0.087 H 
ATOM     35  OAS FG5 d           3.212  -9.082  31.326  0.00  0.00    -0.296 OA
ENDBRANCH  19  22
ENDBRANCH  17  19
ENDBRANCH  14  17
ENDBRANCH   7  14
BRANCH   1  36
ATOM     36  CA  FG5 d          -0.433  -8.602  35.506  0.00  0.00     0.080 C 
ATOM     37  H1  FG5 d          -1.248  -8.986  34.874  0.00  0.00     0.081 H 
ATOM     38  H2  FG5 d          -0.845  -7.899  36.245  0.00  0.00     0.081 H 
BRANCH  36  39
ATOM     39  C   FG5 d           0.486  -7.804  34.603  0.00  0.00     0.191 C 
ATOM     40  O   FG5 d           1.248  -6.986  35.195  0.00  0.00    -0.647 OA
ATOM     41  OXT FG5 d           0.454  -8.044  33.377  0.00  0.00    -0.647 OA
ENDBRANCH  36  39
ENDBRANCH   1  36
BRANCH   6  42
ATOM     42  OAR FG5 d          -0.050 -10.189  41.623  0.00  0.00    -0.356 OA
BRANCH  42  43
ATOM     43  CAA FG5 d          -0.924  -9.284  42.298  0.00  0.00     0.010 C 
ATOM     44  H3  FG5 d          -0.343  -8.670  43.002  0.00  0.00     0.066 H 
ATOM     45  H4  FG5 d          -1.686  -9.853  42.850  0.00  0.00     0.066 H 
ATOM     46  H5  FG5 d          -1.415  -8.631  41.562  0.00  0.00     0.066 H 
ENDBRANCH  42  43
ENDBRANCH   6  42
TORSDOF 8
ENDMDL
MODEL 3
REMARK VINA RESULT:      -7.5      2.489      5.303
REMARK  8 active torsions:
REMARK  status: ('A' for Active; 'I' for Inactive)
REMARK    1  A    between atoms: CA_4  and  C_1 
REMARK    2  A    between atoms: N_2  and  CA_4 
REMARK    3  A    between atoms: OAR_19  and  CAA_5 
REMARK    4  A    between atoms: NAQ_18  and  CAO_17 
REMARK    5  A    between atoms: CAO_17  and  CAV_22 
REMARK    6  A    between atoms: SBC_28  and  NAQ_18 
REMARK    7  A    between atoms: CAU_21  and  OAR_19 
REMARK    8  A    between atoms: CAW_23  and  SBC_28 
ROOT
ATOM      1  N   FG5 d           2.561 -11.183  33.927  0.00  0.00    -0.338 N 
ATOM      2  CAH FG5 d           4.817 -12.897  36.226  0.00  0.00    -0.049 A 
ATOM      3  CAK FG5 d           4.405 -12.157  35.134  0.00  0.00    -0.054 A 
ATOM      4  CAL FG5 d           2.466 -13.020  36.813  0.00  0.00    -0.039 A 
ATOM      5  CAM FG5 d           0.942 -11.869  35.258  0.00  0.00    -0.047 A 
ATOM      6  CAU FG5 d           3.814 -13.332  37.080  0.00  0.00     0.069 A 
ATOM      7  CAV FG5 d           1.244 -11.175  34.152  0.00  0.00     0.032 A 
ATOM      8  CAY FG5 d           2.119 -12.298  35.731  0.00  0.00    -0.005 A 
ATOM      9  CBA FG5 d           3.108 -11.872  34.913  0.00  0.00     0.045 A 
ATOM     10  H8  FG5 d           5.862 -13.125  36.405  0.00  0.00     0.087 H 
ATOM     11  H11 FG5 d           5.149 -11.794  34.435  0.00  0.00     0.087 H 
ATOM     12  H12 FG5 d           1.695 -13.368  37.491  0.00  0.00     0.089 H 
ATOM     13  H13 FG5 d          -0.047 -12.046  35.679  0.00  0.00     0.088 H 
ENDROOT
BRANCH   7  14
ATOM     14  CAO FG5 d           0.283 -10.441  33.184  0.00  0.00     0.041 C 
ATOM     15  H15 FG5 d           0.889  -9.842  32.489  0.00  0.00     0.074 H 
ATOM     16  H16 FG5 d          -0.279 -11.200  32.619  0.00  0.00     0.074 H 
BRANCH  14  17
ATOM     17  NAQ FG5 d          -0.685  -9.545  33.834  0.00  0.00    -0.308 N 
ATOM     18  H17 FG5 d          -1.679  -9.640  33.771  0.00  0.00     0.172 HD
BRANCH  17  19
ATOM     19  SBC FG5 d           0.166  -8.251  34.763  0.00  0.00     0.281 S 
ATOM     20  OAC FG5 d          -0.501  -6.913  34.405  0.00  0.00    -0.199 OA
ATOM     21  OAD FG5 d           1.689  -8.189  34.545  0.00  0.00    -0.199 OA
BRANCH  19  22
ATOM     22  CAW FG5 d          -0.101  -8.565  36.477  0.00  0.00     0.191 A 
ATOM     23  CAN FG5 d           0.554  -9.500  37.140  0.00  0.00    -0.025 A 
ATOM     24  CAX FG5 d           0.153  -9.514  38.403  0.00  0.00     0.001 A 
ATOM     25  H14 FG5 d           1.310 -10.160  36.714  0.00  0.00     0.090 H 
ATOM     26  CAI FG5 d           0.545 -10.293  39.415  0.00  0.00    -0.070 A 
ATOM     27  CAZ FG5 d          -0.785  -8.567  38.538  0.00  0.00     0.087 A 
ATOM     28  CAF FG5 d          -0.025 -10.136  40.665  0.00  0.00    -0.082 A 
ATOM     29  H9  FG5 d           1.308 -11.047  39.257  0.00  0.00     0.084 H 
ATOM     30  CAG FG5 d          -0.998  -9.148  40.801  0.00  0.00    -0.080 A 
ATOM     31  H6  FG5 d           0.271 -10.755  41.504  0.00  0.00     0.083 H 
ATOM     32  CAJ FG5 d          -1.366  -8.359  39.715  0.00  0.00    -0.049 A 
ATOM     33  H7  FG5 d          -1.473  -8.993  41.763  0.00  0.00     0.083 H 
ATOM     34  H10 FG5 d          -2.117  -7.584  39.828  0.00  0.00     0.087 H 
ATOM     35  OAS FG5 d          -0.954  -7.947  37.283  0.00  0.00    -0.296 OA
ENDBRANCH  19  22
ENDBRANCH  17  19
ENDBRANCH  14  17
ENDBRANCH   7  14
BRANCH   1  36
ATOM     36  CA  FG5 d           3.497 -10.573  32.908  0.00  0.00     0.080 C 
ATOM     37  H1  FG5 d           3.945  -9.683  33.376  0.00  0.00     0.081 H 
ATOM     38  H2  FG5 d           4.283 -11.317  32.710  0.00  0.00     0.081 H 
BRANCH  36  39
ATOM     39  C   FG5 d           2.955 -10.136  31.561  0.00  0.00     0.191 C 
ATOM     40  O   FG5 d           2.651 -11.076  30.771  0.00  0.00    -0.647 OA
ATOM     41  OXT FG5 d           2.812  -8.912  31.358  0.00  0.00    -0.647 OA
ENDBRANCH  36  39
ENDBRANCH   1  36
BRANCH   6  42
ATOM     42  OAR FG5 d           4.200 -14.060  38.146  0.00  0.00    -0.356 OA
BRANCH  42  43
ATOM     43  CAA FG5 d           4.461 -13.307  39.331  0.00  0.00     0.010 C 
ATOM     44  H3  FG5 d           3.551 -12.767  39.629  0.00  0.00     0.066 H 
ATOM     45  H4  FG5 d           5.269 -12.586  39.137  0.00  0.00     0.066 H 
ATOM     46  H5  FG5 d           4.765 -13.989  40.139  0.00  0.00     0.066 H 
ENDBRANCH  42  43
ENDBRANCH   6  42
TORSDOF 8
ENDMDL
MODEL 4
REMARK VINA RESULT:      -7.4      1.742      2.334
REMARK  8 active torsions:
REMARK  status: ('A' for Active; 'I' for Inactive)
REMARK    1  A    between atoms: CA_4  and  C_1 
REMARK    2  A    between atoms: N_2  and  CA_4 
REMARK    3  A    between atoms: OAR_19  and  CAA_5 
REMARK    4  A    between atoms: NAQ_18  and  CAO_17 
REMARK    5  A    between atoms: CAO_17  and  CAV_22 
REMARK    6  A    between atoms: SBC_28  and  NAQ_18 
REMARK    7  A    between atoms: CAU_21  and  OAR_19 
REMARK    8  A    between atoms: CAW_23  and  SBC_28 
ROOT
ATOM      1  N   FG5 d           2.830 -10.115  33.743  0.00  0.00    -0.338 N 
ATOM      2  CAH FG5 d           3.587  -9.621  30.208  0.00  0.00    -0.049 A 
ATOM      3  CAK FG5 d           3.758 -10.015  31.522  0.00  0.00    -0.054 A 
ATOM      4  CAL FG5 d           1.427  -8.777  30.923  0.00  0.00    -0.039 A 
ATOM      5  CAM FG5 d           0.919  -9.104  33.310  0.00  0.00    -0.047 A 
ATOM      6  CAU FG5 d           2.388  -8.991  29.914  0.00  0.00     0.069 A 
ATOM      7  CAV FG5 d           1.666  -9.699  34.250  0.00  0.00     0.032 A 
ATOM      8  CAY FG5 d           1.647  -9.178  32.189  0.00  0.00    -0.005 A 
ATOM      9  CBA FG5 d           2.817  -9.801  32.460  0.00  0.00     0.045 A 
ATOM     10  H8  FG5 d           4.345  -9.796  29.453  0.00  0.00     0.087 H 
ATOM     11  H11 FG5 d           4.679 -10.511  31.806  0.00  0.00     0.087 H 
ATOM     12  H12 FG5 d           0.495  -8.283  30.675  0.00  0.00     0.089 H 
ATOM     13  H13 FG5 d          -0.067  -8.657  33.433  0.00  0.00     0.088 H 
ENDROOT
BRANCH   7  14
ATOM     14  CAO FG5 d           1.336  -9.914  35.749  0.00  0.00     0.041 C 
ATOM     15  H15 FG5 d           2.278  -9.869  36.316  0.00  0.00     0.074 H 
ATOM     16  H16 FG5 d           0.674  -9.098  36.073  0.00  0.00     0.074 H 
BRANCH  14  17
ATOM     17  NAQ FG5 d           0.676 -11.191  36.060  0.00  0.00    -0.308 N 
ATOM     18  H17 FG5 d           0.116 -11.713  35.416  0.00  0.00     0.172 HD
BRANCH  17  19
ATOM     19  SBC FG5 d           1.014 -11.687  37.763  0.00  0.00     0.281 S 
ATOM     20  OAC FG5 d           2.530 -11.568  37.985  0.00  0.00    -0.199 OA
ATOM     21  OAD FG5 d           0.503 -13.088  38.146  0.00  0.00    -0.199 OA
BRANCH  19  22
ATOM     22  CAW FG5 d           0.204 -10.532  38.822  0.00  0.00     0.191 A 
ATOM     23  CAN FG5 d          -0.552  -9.552  38.361  0.00  0.00    -0.025 A 
ATOM     24  CAX FG5 d          -1.029  -8.844  39.375  0.00  0.00     0.001 A 
ATOM     25  H14 FG5 d          -0.753  -9.356  37.309  0.00  0.00     0.090 H 
ATOM     26  CAI FG5 d          -1.827  -7.772  39.367  0.00  0.00    -0.070 A 
ATOM     27  CAZ FG5 d          -0.555  -9.388  40.504  0.00  0.00     0.087 A 
ATOM     28  CAF FG5 d          -2.195  -7.181  40.562  0.00  0.00    -0.082 A 
ATOM     29  H9  FG5 d          -2.185  -7.368  38.427  0.00  0.00     0.084 H 
ATOM     30  CAG FG5 d          -1.703  -7.752  41.733  0.00  0.00    -0.080 A 
ATOM     31  H6  FG5 d          -2.840  -6.310  40.586  0.00  0.00     0.083 H 
ATOM     32  CAJ FG5 d          -0.879  -8.873  41.686  0.00  0.00    -0.049 A 
ATOM     33  H7  FG5 d          -1.964  -7.318  42.691  0.00  0.00     0.083 H 
ATOM     34  H10 FG5 d          -0.505  -9.320  42.600  0.00  0.00     0.087 H 
ATOM     35  OAS FG5 d           0.251 -10.489  40.147  0.00  0.00    -0.296 OA
ENDBRANCH  19  22
ENDBRANCH  17  19
ENDBRANCH  14  17
ENDBRANCH   7  14
BRANCH   1  36
ATOM     36  CA  FG5 d           4.040 -10.863  34.259  0.00  0.00     0.080 C 
ATOM     37  H1  FG5 d           4.702 -11.033  33.398  0.00  0.00     0.081 H 
ATOM     38  H2  FG5 d           4.541 -10.200  34.981  0.00  0.00     0.081 H 
BRANCH  36  39
ATOM     39  C   FG5 d           3.855 -12.202  34.945  0.00  0.00     0.191 C 
ATOM     40  O   FG5 d           2.736 -12.760  34.749  0.00  0.00    -0.647 OA
ATOM     41  OXT FG5 d           4.816 -12.662  35.597  0.00  0.00    -0.647 OA
ENDBRANCH  36  39
ENDBRANCH   1  36
BRANCH   6  42
ATOM     42  OAR FG5 d           2.209  -8.596  28.638  0.00  0.00    -0.356 OA
BRANCH  42  43
ATOM     43  CAA FG5 d           1.491  -9.516  27.815  0.00  0.00     0.010 C 
ATOM     44  H3  FG5 d           1.802 -10.543  28.055  0.00  0.00     0.066 H 
ATOM     45  H4  FG5 d           1.705  -9.305  26.757  0.00  0.00     0.066 H 
ATOM     46  H5  FG5 d           0.412  -9.407  27.999  0.00  0.00     0.066 H 
ENDBRANCH  42  43
ENDBRANCH   6  42
TORSDOF 8
ENDMDL
MODEL 5
REMARK VINA RESULT:      -7.3      2.306      3.788
REMARK  8 active torsions:
REMARK  status: ('A' for Active; 'I' for Inactive)
REMARK    1  A    between atoms: CA_4  and  C_1 
REMARK    2  A    between atoms: N_2  and  CA_4 
REMARK    3  A    between atoms: OAR_19  and  CAA_5 
REMARK    4  A    between atoms: NAQ_18  and  CAO_17 
REMARK    5  A    between atoms: CAO_17  and  CAV_22 
REMARK    6  A    between atoms: SBC_28  and  NAQ_18 
REMARK    7  A    between atoms: CAU_21  and  OAR_19 
REMARK    8  A    between atoms: CAW_23  and  SBC_28 
ROOT
ATOM      1  N   FG5 d           0.555  -8.677  34.156  0.00  0.00    -0.338 N 
ATOM      2  CAH FG5 d           2.585  -9.144  31.160  0.00  0.00    -0.049 A 
ATOM      3  CAK FG5 d           2.057  -8.525  32.278  0.00  0.00    -0.054 A 
ATOM      4  CAL FG5 d           1.164 -11.024  31.740  0.00  0.00    -0.039 A 
ATOM      5  CAM FG5 d          -0.211 -10.706  33.759  0.00  0.00    -0.047 A 
ATOM      6  CAU FG5 d           2.122 -10.424  30.898  0.00  0.00     0.069 A 
ATOM      7  CAV FG5 d          -0.260  -9.647  34.579  0.00  0.00     0.032 A 
ATOM      8  CAY FG5 d           0.679 -10.374  32.815  0.00  0.00    -0.005 A 
ATOM      9  CBA FG5 d           1.147  -9.130  33.066  0.00  0.00     0.045 A 
ATOM     10  H8  FG5 d           3.318  -8.657  30.527  0.00  0.00     0.087 H 
ATOM     11  H11 FG5 d           2.384  -7.523  32.527  0.00  0.00     0.087 H 
ATOM     12  H12 FG5 d           0.813 -12.024  31.520  0.00  0.00     0.089 H 
ATOM     13  H13 FG5 d          -0.774 -11.635  33.842  0.00  0.00     0.088 H 
ENDROOT
BRANCH   7  14
ATOM     14  CAO FG5 d          -1.117  -9.457  35.856  0.00  0.00     0.041 C 
ATOM     15  H15 FG5 d          -1.948  -8.778  35.612  0.00  0.00     0.074 H 
ATOM     16  H16 FG5 d          -1.519 -10.439  36.146  0.00  0.00     0.074 H 
BRANCH  14  17
ATOM     17  NAQ FG5 d          -0.394  -8.899  37.009  0.00  0.00    -0.308 N 
ATOM     18  H17 FG5 d           0.093  -8.025  37.006  0.00  0.00     0.172 HD
BRANCH  17  19
ATOM     19  SBC FG5 d          -0.507 -10.008  38.430  0.00  0.00     0.281 S 
ATOM     20  OAC FG5 d          -1.788 -10.840  38.265  0.00  0.00    -0.199 OA
ATOM     21  OAD FG5 d          -0.468  -9.311  39.803  0.00  0.00    -0.199 OA
BRANCH  19  22
ATOM     22  CAW FG5 d           0.877 -11.098  38.362  0.00  0.00     0.191 A 
ATOM     23  CAN FG5 d           1.304 -11.637  37.235  0.00  0.00    -0.025 A 
ATOM     24  CAX FG5 d           2.353 -12.410  37.481  0.00  0.00     0.001 A 
ATOM     25  H14 FG5 d           0.863 -11.472  36.253  0.00  0.00     0.090 H 
ATOM     26  CAI FG5 d           3.090 -13.142  36.640  0.00  0.00    -0.070 A 
ATOM     27  CAZ FG5 d           2.588 -12.362  38.799  0.00  0.00     0.087 A 
ATOM     28  CAF FG5 d           4.147 -13.890  37.126  0.00  0.00    -0.082 A 
ATOM     29  H9  FG5 d           2.861 -13.149  35.581  0.00  0.00     0.084 H 
ATOM     30  CAG FG5 d           4.390 -13.834  38.496  0.00  0.00    -0.080 A 
ATOM     31  H6  FG5 d           4.761 -14.494  36.468  0.00  0.00     0.083 H 
ATOM     32  CAJ FG5 d           3.595 -13.051  39.328  0.00  0.00    -0.049 A 
ATOM     33  H7  FG5 d           5.207 -14.408  38.919  0.00  0.00     0.083 H 
ATOM     34  H10 FG5 d           3.793 -13.003  40.393  0.00  0.00     0.087 H 
ATOM     35  OAS FG5 d           1.627 -11.508  39.377  0.00  0.00    -0.296 OA
ENDBRANCH  19  22
ENDBRANCH  17  19
ENDBRANCH  14  17
ENDBRANCH   7  14
BRANCH   1  36
ATOM     36  CA  FG5 d           0.965  -7.305  34.646  0.00  0.00     0.080 C 
ATOM     37  H1  FG5 d           1.224  -6.712  33.757  0.00  0.00     0.081 H 
ATOM     38  H2  FG5 d           0.084  -6.865  35.137  0.00  0.00     0.081 H 
BRANCH  36  39
ATOM     39  C   FG5 d           2.122  -7.172  35.617  0.00  0.00     0.191 C 
ATOM     40  O   FG5 d           2.898  -6.196  35.402  0.00  0.00    -0.647 OA
ATOM     41  OXT FG5 d           2.193  -7.991  36.558  0.00  0.00    -0.647 OA
ENDBRANCH  36  39
ENDBRANCH   1  36
BRANCH   6  42
ATOM     42  OAR FG5 d           2.624 -11.037  29.808  0.00  0.00    -0.356 OA
BRANCH  42  43
ATOM     43  CAA FG5 d           2.162 -10.524  28.558  0.00  0.00     0.010 C 
ATOM     44  H3  FG5 d           1.220  -9.977  28.712  0.00  0.00     0.066 H 
ATOM     45  H4  FG5 d           1.992 -11.357  27.860  0.00  0.00     0.066 H 
ATOM     46  H5  FG5 d           2.917  -9.843  28.139  0.00  0.00     0.066 H 
ENDBRANCH  42  43
ENDBRANCH   6  42
TORSDOF 8
ENDMDL
MODEL 6
REMARK VINA RESULT:      -6.5      2.176      8.556
REMARK  8 active torsions:
REMARK  status: ('A' for Active; 'I' for Inactive)
REMARK    1  A    between atoms: CA_4  and  C_1 
REMARK    2  A    between atoms: N_2  and  CA_4 
REMARK    3  A    between atoms: OAR_19  and  CAA_5 
REMARK    4  A    between atoms: NAQ_18  and  CAO_17 
REMARK    5  A    between atoms: CAO_17  and  CAV_22 
REMARK    6  A    between atoms: SBC_28  and  NAQ_18 
REMARK    7  A    between atoms: CAU_21  and  OAR_19 
REMARK    8  A    between atoms: CAW_23  and  SBC_28 
ROOT
ATOM      1  N   FG5 d           0.556  -8.705  36.841  0.00  0.00    -0.338 N 
ATOM      2  CAH FG5 d           0.327  -8.641  40.482  0.00  0.00    -0.049 A 
ATOM      3  CAK FG5 d           0.847  -8.437  39.218  0.00  0.00    -0.054 A 
ATOM      4  CAL FG5 d          -1.555  -9.677  39.354  0.00  0.00    -0.039 A 
ATOM      5  CAM FG5 d          -1.398  -9.726  36.896  0.00  0.00    -0.047 A 
ATOM      6  CAU FG5 d          -0.904  -9.275  40.538  0.00  0.00     0.069 A 
ATOM      7  CAV FG5 d          -0.425  -9.242  36.111  0.00  0.00     0.032 A 
ATOM      8  CAY FG5 d          -1.001  -9.457  38.147  0.00  0.00    -0.005 A 
ATOM      9  CBA FG5 d           0.196  -8.828  38.106  0.00  0.00     0.045 A 
ATOM     10  H8  FG5 d           0.852  -8.325  41.377  0.00  0.00     0.087 H 
ATOM     11  H11 FG5 d           1.809  -7.946  39.118  0.00  0.00     0.087 H 
ATOM     12  H12 FG5 d          -2.517 -10.172  39.416  0.00  0.00     0.089 H 
ATOM     13  H13 FG5 d          -2.312 -10.230  36.585  0.00  0.00     0.088 H 
ENDROOT
BRANCH   7  14
ATOM     14  CAO FG5 d          -0.337  -9.263  34.564  0.00  0.00     0.041 C 
ATOM     15  H15 FG5 d          -1.023  -8.498  34.172  0.00  0.00     0.074 H 
ATOM     16  H16 FG5 d           0.694  -9.012  34.277  0.00  0.00     0.074 H 
BRANCH  14  17
ATOM     17  NAQ FG5 d          -0.685 -10.550  33.943  0.00  0.00    -0.308 N 
ATOM     18  H17 FG5 d          -1.619 -10.871  33.783  0.00  0.00     0.172 HD
BRANCH  17  19
ATOM     19  SBC FG5 d           0.806 -11.473  33.508  0.00  0.00     0.281 S 
ATOM     20  OAC FG5 d           0.411 -12.952  33.379  0.00  0.00    -0.199 OA
ATOM     21  OAD FG5 d           1.988 -11.294  34.479  0.00  0.00    -0.199 OA
BRANCH  19  22
ATOM     22  CAW FG5 d           1.341 -10.900  31.928  0.00  0.00     0.191 A 
ATOM     23  CAN FG5 d           2.446 -10.195  31.764  0.00  0.00    -0.025 A 
ATOM     24  CAX FG5 d           2.599  -9.903  30.480  0.00  0.00     0.001 A 
ATOM     25  H14 FG5 d           3.127  -9.899  32.560  0.00  0.00     0.090 H 
ATOM     26  CAI FG5 d           3.567  -9.210  29.871  0.00  0.00    -0.070 A 
ATOM     27  CAZ FG5 d           1.560 -10.431  29.819  0.00  0.00     0.087 A 
ATOM     28  CAF FG5 d           3.517  -9.017  28.503  0.00  0.00    -0.082 A 
ATOM     29  H9  FG5 d           4.388  -8.801  30.449  0.00  0.00     0.084 H 
ATOM     30  CAG FG5 d           2.437  -9.572  27.821  0.00  0.00    -0.080 A 
ATOM     31  H6  FG5 d           4.287  -8.458  27.983  0.00  0.00     0.083 H 
ATOM     32  CAJ FG5 d           1.458 -10.290  28.502  0.00  0.00    -0.049 A 
ATOM     33  H7  FG5 d           2.358  -9.442  26.747  0.00  0.00     0.083 H 
ATOM     34  H10 FG5 d           0.624 -10.728  27.965  0.00  0.00     0.087 H 
ATOM     35  OAS FG5 d           0.737 -11.082  30.762  0.00  0.00    -0.296 OA
ENDBRANCH  19  22
ENDBRANCH  17  19
ENDBRANCH  14  17
ENDBRANCH   7  14
BRANCH   1  36
ATOM     36  CA  FG5 d           1.857  -7.987  36.559  0.00  0.00     0.080 C 
ATOM     37  H1  FG5 d           1.912  -7.137  37.257  0.00  0.00     0.081 H 
ATOM     38  H2  FG5 d           2.668  -8.696  36.782  0.00  0.00     0.081 H 
BRANCH  36  39
ATOM     39  C   FG5 d           2.123  -7.435  35.172  0.00  0.00     0.191 C 
ATOM     40  O   FG5 d           2.200  -8.300  34.253  0.00  0.00    -0.647 OA
ATOM     41  OXT FG5 d           2.196  -6.195  35.041  0.00  0.00    -0.647 OA
ENDBRANCH  36  39
ENDBRANCH   1  36
BRANCH   6  42
ATOM     42  OAR FG5 d          -1.421  -9.487  41.764  0.00  0.00    -0.356 OA
BRANCH  42  43
ATOM     43  CAA FG5 d          -0.461  -9.573  42.818  0.00  0.00     0.010 C 
ATOM     44  H3  FG5 d          -0.433 -10.603  43.204  0.00  0.00     0.066 H 
ATOM     45  H4  FG5 d          -0.744  -8.885  43.629  0.00  0.00     0.066 H 
ATOM     46  H5  FG5 d           0.532  -9.298  42.434  0.00  0.00     0.066 H 
ENDBRANCH  42  43
ENDBRANCH   6  42
TORSDOF 8
ENDMDL
MODEL 7
REMARK VINA RESULT:      -6.1      2.056      3.064
REMARK  8 active torsions:
REMARK  status: ('A' for Active; 'I' for Inactive)
REMARK    1  A    between atoms: CA_4  and  C_1 
REMARK    2  A    between atoms: N_2  and  CA_4 
REMARK    3  A    between atoms: OAR_19  and  CAA_5 
REMARK    4  A    between atoms: NAQ_18  and  CAO_17 
REMARK    5  A    between atoms: CAO_17  and  CAV_22 
REMARK    6  A    between atoms: SBC_28  and  NAQ_18 
REMARK    7  A    between atoms: CAU_21  and  OAR_19 
REMARK    8  A    between atoms: CAW_23  and  SBC_28 
ROOT
ATOM      1  N   FG5 d           2.709  -9.943  33.382  0.00  0.00    -0.338 N 
ATOM      2  CAH FG5 d           2.671 -10.944  29.873  0.00  0.00    -0.049 A 
ATOM      3  CAK FG5 d           3.002 -10.956  31.215  0.00  0.00    -0.054 A 
ATOM      4  CAL FG5 d           1.280  -9.030  30.409  0.00  0.00    -0.039 A 
ATOM      5  CAM FG5 d           1.311  -8.349  32.776  0.00  0.00    -0.047 A 
ATOM      6  CAU FG5 d           1.786  -9.954  29.474  0.00  0.00     0.069 A 
ATOM      7  CAV FG5 d           1.975  -8.908  33.798  0.00  0.00     0.032 A 
ATOM      8  CAY FG5 d           1.639  -9.084  31.706  0.00  0.00    -0.005 A 
ATOM      9  CBA FG5 d           2.494 -10.061  32.084  0.00  0.00     0.045 A 
ATOM     10  H8  FG5 d           3.078 -11.666  29.175  0.00  0.00     0.087 H 
ATOM     11  H11 FG5 d           3.690 -11.709  31.579  0.00  0.00     0.087 H 
ATOM     12  H12 FG5 d           0.590  -8.262  30.080  0.00  0.00     0.089 H 
ATOM     13  H13 FG5 d           0.648  -7.485  32.810  0.00  0.00     0.088 H 
ENDROOT
BRANCH   7  14
ATOM     14  CAO FG5 d           1.981  -8.484  35.288  0.00  0.00     0.041 C 
ATOM     15  H15 FG5 d           2.230  -9.368  35.894  0.00  0.00     0.074 H 
ATOM     16  H16 FG5 d           2.758  -7.718  35.423  0.00  0.00     0.074 H 
BRANCH  14  17
ATOM     17  NAQ FG5 d           0.708  -7.936  35.781  0.00  0.00    -0.308 N 
ATOM     18  H17 FG5 d           0.491  -6.961  35.833  0.00  0.00     0.172 HD
BRANCH  17  19
ATOM     19  SBC FG5 d          -0.410  -9.265  36.277  0.00  0.00     0.281 S 
ATOM     20  OAC FG5 d           0.267 -10.596  35.912  0.00  0.00    -0.199 OA
ATOM     21  OAD FG5 d          -1.828  -9.179  35.681  0.00  0.00    -0.199 OA
BRANCH  19  22
ATOM     22  CAW FG5 d          -0.579  -9.189  38.030  0.00  0.00     0.191 A 
ATOM     23  CAN FG5 d          -0.064 -10.100  38.836  0.00  0.00    -0.025 A 
ATOM     24  CAX FG5 d          -0.345  -9.791  40.094  0.00  0.00     0.001 A 
ATOM     25  H14 FG5 d           0.505 -10.972  38.515  0.00  0.00     0.090 H 
ATOM     26  CAI FG5 d          -0.025 -10.432  41.222  0.00  0.00    -0.070 A 
ATOM     27  CAZ FG5 d          -1.061  -8.660  40.080  0.00  0.00     0.087 A 
ATOM     28  CAF FG5 d          -0.439  -9.925  42.441  0.00  0.00    -0.082 A 
ATOM     29  H9  FG5 d           0.557 -11.345  41.182  0.00  0.00     0.084 H 
ATOM     30  CAG FG5 d          -1.181  -8.747  42.421  0.00  0.00    -0.080 A 
ATOM     31  H6  FG5 d          -0.196 -10.425  43.372  0.00  0.00     0.083 H 
ATOM     32  CAJ FG5 d          -1.482  -8.116  41.218  0.00  0.00    -0.049 A 
ATOM     33  H7  FG5 d          -1.528  -8.317  43.354  0.00  0.00     0.083 H 
ATOM     34  H10 FG5 d          -2.052  -7.193  41.208  0.00  0.00     0.087 H 
ATOM     35  OAS FG5 d          -1.217  -8.264  38.736  0.00  0.00    -0.296 OA
ENDBRANCH  19  22
ENDBRANCH  17  19
ENDBRANCH  14  17
ENDBRANCH   7  14
BRANCH   1  36
ATOM     36  CA  FG5 d           3.613 -10.970  34.029  0.00  0.00     0.080 C 
ATOM     37  H1  FG5 d           4.203 -11.431  33.222  0.00  0.00     0.081 H 
ATOM     38  H2  FG5 d           4.285 -10.422  34.706  0.00  0.00     0.081 H 
BRANCH  36  39
ATOM     39  C   FG5 d           3.005 -12.103  34.832  0.00  0.00     0.191 C 
ATOM     40  O   FG5 d           3.717 -12.533  35.784  0.00  0.00    -0.647 OA
ATOM     41  OXT FG5 d           1.854 -12.483  34.527  0.00  0.00    -0.647 OA
ENDBRANCH  36  39
ENDBRANCH   1  36
BRANCH   6  42
ATOM     42  OAR FG5 d           1.459  -9.926  28.167  0.00  0.00    -0.356 OA
BRANCH  42  43
ATOM     43  CAA FG5 d           0.307 -10.693  27.815  0.00  0.00     0.010 C 
ATOM     44  H3  FG5 d           0.244 -11.578  28.465  0.00  0.00     0.066 H 
ATOM     45  H4  FG5 d           0.387 -11.013  26.766  0.00  0.00     0.066 H 
ATOM     46  H5  FG5 d          -0.596 -10.079  27.943  0.00  0.00     0.066 H 
ENDBRANCH  42  43
ENDBRANCH   6  42
TORSDOF 8
ENDMDL
