MODEL 1
REMARK VINA RESULT:      -9.9      0.000      0.000
REMARK  11 active torsions:
REMARK  status: ('A' for Active; 'I' for Inactive)
REMARK    1  A    between atoms: CAA_1  and  CAP_2 
REMARK    2  A    between atoms: CAP_2  and  CAQ_3 
REMARK    3  A    between atoms: CAQ_3  and  CAS_4 
REMARK    4  A    between atoms: CAS_4  and  CAV_5 
REMARK    5  A    between atoms: CAX_10  and  CAY_11 
REMARK    6  A    between atoms: CAW_16  and  CAT_17 
REMARK    7  A    between atoms: CAT_17  and  CAR_18 
REMARK    8  A    between atoms: CAR_18  and  CAU_19 
REMARK    9  A    between atoms: CAU_19  and  CAZ_20 
REMARK   10  A    between atoms: CAZ_20  and  PBA_21 
REMARK   11  A    between atoms: CAZ_20  and  SBB_25 
ROOT
ATOM      1  CAY B69 d          14.231  56.763  37.668  0.00  0.00    -0.026 A 
ATOM      2  CAO B69 d          15.046  56.248  38.671  0.00  0.00    -0.072 A 
ATOM      3  CAK B69 d          15.940  55.222  38.379  0.00  0.00    -0.076 A 
ATOM      4  CAN B69 d          14.300  56.235  36.384  0.00  0.00    -0.072 A 
ATOM      5  CAJ B69 d          15.196  55.211  36.092  0.00  0.00    -0.076 A 
ATOM      6  CAW B69 d          16.021  54.707  37.091  0.00  0.00    -0.058 A 
ATOM      7  H14 B69 d          14.984  56.645  39.678  0.00  0.00     0.084 H 
ATOM      8  H15 B69 d          16.576  54.823  39.161  0.00  0.00     0.084 H 
ATOM      9  H16 B69 d          13.653  56.624  35.606  0.00  0.00     0.084 H 
ATOM     10  H17 B69 d          15.250  54.807  35.088  0.00  0.00     0.084 H 
ENDROOT
BRANCH   1  11
ATOM     11  CAX B69 d          13.438  57.878  37.921  0.00  0.00    -0.026 A 
ATOM     12  CAM B69 d          12.527  58.346  36.980  0.00  0.00    -0.072 A 
ATOM     13  CAI B69 d          11.810  59.512  37.225  0.00  0.00    -0.076 A 
ATOM     14  H11 B69 d          12.375  57.801  36.056  0.00  0.00     0.084 H 
ATOM     15  CAV B69 d          11.988  60.213  38.414  0.00  0.00    -0.058 A 
ATOM     16  H10 B69 d          11.108  59.878  36.484  0.00  0.00     0.084 H 
ATOM     17  CAH B69 d          12.910  59.753  39.346  0.00  0.00    -0.076 A 
ATOM     18  CAL B69 d          13.628  58.588  39.101  0.00  0.00    -0.072 A 
ATOM     19  H12 B69 d          13.070  60.304  40.265  0.00  0.00     0.084 H 
ATOM     20  H13 B69 d          14.341  58.231  39.836  0.00  0.00     0.084 H 
BRANCH  15  21
ATOM     21  CAS B69 d          10.999  61.308  38.821  0.00  0.00    -0.041 C 
ATOM     22  H8  B69 d          10.592  61.044  39.808  0.00  0.00     0.040 H 
ATOM     23  H9  B69 d          11.556  62.253  38.896  0.00  0.00     0.040 H 
BRANCH  21  24
ATOM     24  CAQ B69 d           9.819  61.534  37.874  0.00  0.00    -0.062 C 
ATOM     25  H6  B69 d           9.710  62.608  37.662  0.00  0.00     0.033 H 
ATOM     26  H7  B69 d           9.986  60.989  36.933  0.00  0.00     0.033 H 
BRANCH  24  27
ATOM     27  CAP B69 d           8.554  61.010  38.561  0.00  0.00    -0.068 C 
ATOM     28  H4  B69 d           8.588  61.286  39.625  0.00  0.00     0.032 H 
ATOM     29  H5  B69 d           7.675  61.474  38.091  0.00  0.00     0.032 H 
BRANCH  27  30
ATOM     30  CAA B69 d           8.430  59.490  38.448  0.00  0.00    -0.077 C 
ATOM     31  H1  B69 d           8.403  59.202  37.387  0.00  0.00     0.027 H 
ATOM     32  H2  B69 d           7.504  59.159  38.941  0.00  0.00     0.027 H 
ATOM     33  H3  B69 d           9.295  59.014  38.935  0.00  0.00     0.027 H 
ENDBRANCH  27  30
ENDBRANCH  24  27
ENDBRANCH  21  24
ENDBRANCH  15  21
ENDBRANCH   1  11
BRANCH   6  34
ATOM     34  CAT B69 d          17.047  53.611  36.779  0.00  0.00    -0.041 C 
ATOM     35  H18 B69 d          17.999  54.083  36.496  0.00  0.00     0.040 H 
ATOM     36  H19 B69 d          16.675  53.003  35.941  0.00  0.00     0.040 H 
BRANCH  34  37
ATOM     37  CAR B69 d          17.282  52.703  37.987  0.00  0.00    -0.059 C 
ATOM     38  H20 B69 d          16.612  51.833  37.918  0.00  0.00     0.033 H 
ATOM     39  H21 B69 d          17.061  53.264  38.907  0.00  0.00     0.033 H 
BRANCH  37  40
ATOM     40  CAU B69 d          18.731  52.214  38.034  0.00  0.00    -0.034 C 
ATOM     41  H22 B69 d          18.729  51.116  38.092  0.00  0.00     0.036 H 
ATOM     42  H23 B69 d          19.212  52.628  38.933  0.00  0.00     0.036 H 
BRANCH  40  43
ATOM     43  CAZ B69 d          19.543  52.635  36.809  0.00  0.00     0.169 C 
ATOM     44  H24 B69 d          18.860  53.041  36.048  0.00  0.00     0.090 H 
BRANCH  43  45
ATOM     45  PBA B69 d          20.439  51.195  36.098  0.00  0.00     0.281 P 
ATOM     46  OAC B69 d          19.350  50.266  35.359  0.00  0.00    -0.639 OA
ATOM     47  OAD B69 d          21.398  51.790  34.951  0.00  0.00    -0.639 OA
ATOM     48  OAB B69 d          21.178  50.447  37.139  0.00  0.00    -0.639 OA
ENDBRANCH  43  45
BRANCH  43  49
ATOM     49  SBB B69 d          20.734  53.935  37.303  0.00  0.00     0.119 S 
ATOM     50  OAG B69 d          20.255  54.587  38.481  0.00  0.00    -0.594 OA
ATOM     51  OAF B69 d          20.869  54.932  36.192  0.00  0.00    -0.594 OA
ATOM     52  OAE B69 d          22.069  53.303  37.571  0.00  0.00    -0.594 OA
ENDBRANCH  43  49
ENDBRANCH  40  43
ENDBRANCH  37  40
ENDBRANCH  34  37
ENDBRANCH   6  34
TORSDOF 11
ENDMDL
MODEL 2
REMARK VINA RESULT:      -9.7      0.985      2.471
REMARK  11 active torsions:
REMARK  status: ('A' for Active; 'I' for Inactive)
REMARK    1  A    between atoms: CAA_1  and  CAP_2 
REMARK    2  A    between atoms: CAP_2  and  CAQ_3 
REMARK    3  A    between atoms: CAQ_3  and  CAS_4 
REMARK    4  A    between atoms: CAS_4  and  CAV_5 
REMARK    5  A    between atoms: CAX_10  and  CAY_11 
REMARK    6  A    between atoms: CAW_16  and  CAT_17 
REMARK    7  A    between atoms: CAT_17  and  CAR_18 
REMARK    8  A    between atoms: CAR_18  and  CAU_19 
REMARK    9  A    between atoms: CAU_19  and  CAZ_20 
REMARK   10  A    between atoms: CAZ_20  and  PBA_21 
REMARK   11  A    between atoms: CAZ_20  and  SBB_25 
ROOT
ATOM      1  CAY B69 d          14.642  56.698  38.111  0.00  0.00    -0.026 A 
ATOM      2  CAO B69 d          14.832  56.016  36.913  0.00  0.00    -0.072 A 
ATOM      3  CAK B69 d          15.574  54.838  36.896  0.00  0.00    -0.076 A 
ATOM      4  CAN B69 d          15.213  56.209  39.280  0.00  0.00    -0.072 A 
ATOM      5  CAJ B69 d          15.952  55.031  39.263  0.00  0.00    -0.076 A 
ATOM      6  CAW B69 d          16.129  54.341  38.068  0.00  0.00    -0.058 A 
ATOM      7  H14 B69 d          14.403  56.401  35.994  0.00  0.00     0.084 H 
ATOM      8  H15 B69 d          15.720  54.307  35.962  0.00  0.00     0.084 H 
ATOM      9  H16 B69 d          15.080  56.749  40.210  0.00  0.00     0.084 H 
ATOM     10  H17 B69 d          16.390  54.651  40.179  0.00  0.00     0.084 H 
ENDROOT
BRANCH   1  11
ATOM     11  CAX B69 d          13.790  57.796  38.157  0.00  0.00    -0.026 A 
ATOM     12  CAM B69 d          12.830  58.007  37.173  0.00  0.00    -0.072 A 
ATOM     13  CAI B69 d          12.050  59.158  37.197  0.00  0.00    -0.076 A 
ATOM     14  H11 B69 d          12.689  57.275  36.387  0.00  0.00     0.084 H 
ATOM     15  CAV B69 d          12.213  60.100  38.208  0.00  0.00    -0.058 A 
ATOM     16  H10 B69 d          11.310  59.323  36.422  0.00  0.00     0.084 H 
ATOM     17  CAH B69 d          13.182  59.895  39.182  0.00  0.00    -0.076 A 
ATOM     18  CAL B69 d          13.964  58.745  39.157  0.00  0.00    -0.072 A 
ATOM     19  H12 B69 d          13.330  60.633  39.961  0.00  0.00     0.084 H 
ATOM     20  H13 B69 d          14.715  58.588  39.924  0.00  0.00     0.084 H 
BRANCH  15  21
ATOM     21  CAS B69 d          11.169  61.200  38.416  0.00  0.00    -0.041 C 
ATOM     22  H8  B69 d          10.803  61.127  39.450  0.00  0.00     0.040 H 
ATOM     23  H9  B69 d          11.668  62.169  38.272  0.00  0.00     0.040 H 
BRANCH  21  24
ATOM     24  CAQ B69 d           9.953  61.157  37.487  0.00  0.00    -0.062 C 
ATOM     25  H6  B69 d           9.829  62.130  36.989  0.00  0.00     0.033 H 
ATOM     26  H7  B69 d          10.091  60.372  36.728  0.00  0.00     0.033 H 
BRANCH  24  27
ATOM     27  CAP B69 d           8.718  60.848  38.339  0.00  0.00    -0.068 C 
ATOM     28  H4  B69 d           8.855  61.292  39.336  0.00  0.00     0.032 H 
ATOM     29  H5  B69 d           7.835  61.293  37.858  0.00  0.00     0.032 H 
BRANCH  27  30
ATOM     30  CAA B69 d           8.492  59.344  38.494  0.00  0.00    -0.077 C 
ATOM     31  H1  B69 d           9.290  58.798  37.969  0.00  0.00     0.027 H 
ATOM     32  H2  B69 d           7.517  59.073  38.062  0.00  0.00     0.027 H 
ATOM     33  H3  B69 d           8.507  59.078  39.561  0.00  0.00     0.027 H 
ENDBRANCH  27  30
ENDBRANCH  24  27
ENDBRANCH  21  24
ENDBRANCH  15  21
ENDBRANCH   1  11
BRANCH   6  34
ATOM     34  CAT B69 d          16.900  53.017  38.038  0.00  0.00    -0.041 C 
ATOM     35  H18 B69 d          16.376  52.282  38.667  0.00  0.00     0.040 H 
ATOM     36  H19 B69 d          17.913  53.184  38.434  0.00  0.00     0.040 H 
BRANCH  34  37
ATOM     37  CAR B69 d          17.009  52.464  36.615  0.00  0.00    -0.059 C 
ATOM     38  H20 B69 d          16.205  52.895  36.000  0.00  0.00     0.033 H 
ATOM     39  H21 B69 d          16.901  51.370  36.646  0.00  0.00     0.033 H 
BRANCH  37  40
ATOM     40  CAU B69 d          18.360  52.817  35.989  0.00  0.00    -0.034 C 
ATOM     41  H22 B69 d          18.408  53.906  35.850  0.00  0.00     0.036 H 
ATOM     42  H23 B69 d          18.434  52.318  35.011  0.00  0.00     0.036 H 
BRANCH  40  43
ATOM     43  CAZ B69 d          19.547  52.382  36.849  0.00  0.00     0.169 C 
ATOM     44  H24 B69 d          19.173  51.988  37.805  0.00  0.00     0.090 H 
BRANCH  43  45
ATOM     45  PBA B69 d          20.659  53.808  37.188  0.00  0.00     0.281 P 
ATOM     46  OAC B69 d          20.092  54.562  38.494  0.00  0.00    -0.639 OA
ATOM     47  OAD B69 d          22.081  53.176  37.596  0.00  0.00    -0.639 OA
ATOM     48  OAB B69 d          20.743  54.719  36.025  0.00  0.00    -0.639 OA
ENDBRANCH  43  45
BRANCH  43  49
ATOM     49  SBB B69 d          20.465  51.063  35.973  0.00  0.00     0.119 S 
ATOM     50  OAG B69 d          21.335  51.659  35.007  0.00  0.00    -0.594 OA
ATOM     51  OAF B69 d          19.493  50.153  35.285  0.00  0.00    -0.594 OA
ATOM     52  OAE B69 d          21.267  50.277  36.969  0.00  0.00    -0.594 OA
ENDBRANCH  43  49
ENDBRANCH  40  43
ENDBRANCH  37  40
ENDBRANCH  34  37
ENDBRANCH   6  34
TORSDOF 11
ENDMDL
MODEL 3
REMARK VINA RESULT:      -9.7      1.131      2.226
REMARK  11 active torsions:
REMARK  status: ('A' for Active; 'I' for Inactive)
REMARK    1  A    between atoms: CAA_1  and  CAP_2 
REMARK    2  A    between atoms: CAP_2  and  CAQ_3 
REMARK    3  A    between atoms: CAQ_3  and  CAS_4 
REMARK    4  A    between atoms: CAS_4  and  CAV_5 
REMARK    5  A    between atoms: CAX_10  and  CAY_11 
REMARK    6  A    between atoms: CAW_16  and  CAT_17 
REMARK    7  A    between atoms: CAT_17  and  CAR_18 
REMARK    8  A    between atoms: CAR_18  and  CAU_19 
REMARK    9  A    between atoms: CAU_19  and  CAZ_20 
REMARK   10  A    between atoms: CAZ_20  and  PBA_21 
REMARK   11  A    between atoms: CAZ_20  and  SBB_25 
ROOT
ATOM      1  CAY B69 d          15.277  55.687  37.908  0.00  0.00    -0.026 A 
ATOM      2  CAO B69 d          15.413  55.227  36.602  0.00  0.00    -0.072 A 
ATOM      3  CAK B69 d          15.940  53.960  36.365  0.00  0.00    -0.076 A 
ATOM      4  CAN B69 d          15.688  54.887  38.967  0.00  0.00    -0.072 A 
ATOM      5  CAJ B69 d          16.213  53.621  38.730  0.00  0.00    -0.076 A 
ATOM      6  CAW B69 d          16.334  53.154  37.426  0.00  0.00    -0.058 A 
ATOM      7  H14 B69 d          15.109  55.853  35.770  0.00  0.00     0.084 H 
ATOM      8  H15 B69 d          16.044  53.601  35.348  0.00  0.00     0.084 H 
ATOM      9  H16 B69 d          15.599  55.253  39.984  0.00  0.00     0.084 H 
ATOM     10  H17 B69 d          16.527  52.999  39.561  0.00  0.00     0.084 H 
ENDROOT
BRANCH   1  11
ATOM     11  CAX B69 d          14.626  56.891  38.155  0.00  0.00    -0.026 A 
ATOM     12  CAM B69 d          14.981  57.698  39.230  0.00  0.00    -0.072 A 
ATOM     13  CAI B69 d          14.256  58.852  39.505  0.00  0.00    -0.076 A 
ATOM     14  H11 B69 d          15.824  57.427  39.855  0.00  0.00     0.084 H 
ATOM     15  CAV B69 d          13.180  59.216  38.701  0.00  0.00    -0.058 A 
ATOM     16  H10 B69 d          14.531  59.473  40.350  0.00  0.00     0.084 H 
ATOM     17  CAH B69 d          12.816  58.401  37.637  0.00  0.00    -0.076 A 
ATOM     18  CAL B69 d          13.539  57.246  37.363  0.00  0.00    -0.072 A 
ATOM     19  H12 B69 d          11.966  58.666  37.019  0.00  0.00     0.084 H 
ATOM     20  H13 B69 d          13.254  56.617  36.527  0.00  0.00     0.084 H 
BRANCH  15  21
ATOM     21  CAS B69 d          12.577  60.620  38.806  0.00  0.00    -0.041 C 
ATOM     22  H8  B69 d          13.249  61.229  39.428  0.00  0.00     0.040 H 
ATOM     23  H9  B69 d          12.533  61.043  37.792  0.00  0.00     0.040 H 
BRANCH  21  24
ATOM     24  CAQ B69 d          11.174  60.705  39.410  0.00  0.00    -0.062 C 
ATOM     25  H6  B69 d          10.764  59.694  39.548  0.00  0.00     0.033 H 
ATOM     26  H7  B69 d          11.217  61.219  40.382  0.00  0.00     0.033 H 
BRANCH  24  27
ATOM     27  CAP B69 d          10.289  61.497  38.441  0.00  0.00    -0.068 C 
ATOM     28  H4  B69 d          10.108  62.497  38.863  0.00  0.00     0.032 H 
ATOM     29  H5  B69 d          10.815  61.595  37.480  0.00  0.00     0.032 H 
BRANCH  27  30
ATOM     30  CAA B69 d           8.945  60.809  38.202  0.00  0.00    -0.077 C 
ATOM     31  H1  B69 d           8.285  60.984  39.064  0.00  0.00     0.027 H 
ATOM     32  H2  B69 d           9.104  59.728  38.075  0.00  0.00     0.027 H 
ATOM     33  H3  B69 d           8.479  61.220  37.294  0.00  0.00     0.027 H 
ENDBRANCH  27  30
ENDBRANCH  24  27
ENDBRANCH  21  24
ENDBRANCH  15  21
ENDBRANCH   1  11
BRANCH   6  34
ATOM     34  CAT B69 d          16.866  51.744  37.147  0.00  0.00    -0.041 C 
ATOM     35  H18 B69 d          16.066  51.143  36.690  0.00  0.00     0.040 H 
ATOM     36  H19 B69 d          17.173  51.283  38.098  0.00  0.00     0.040 H 
BRANCH  34  37
ATOM     37  CAR B69 d          18.067  51.775  36.200  0.00  0.00    -0.059 C 
ATOM     38  H20 B69 d          18.072  52.732  35.658  0.00  0.00     0.033 H 
ATOM     39  H21 B69 d          17.979  50.947  35.481  0.00  0.00     0.033 H 
BRANCH  37  40
ATOM     40  CAU B69 d          19.381  51.631  36.971  0.00  0.00    -0.034 C 
ATOM     41  H22 B69 d          19.646  50.564  37.015  0.00  0.00     0.036 H 
ATOM     42  H23 B69 d          19.233  52.015  37.992  0.00  0.00     0.036 H 
BRANCH  40  43
ATOM     43  CAZ B69 d          20.538  52.394  36.326  0.00  0.00     0.169 C 
ATOM     44  H24 B69 d          20.287  52.608  35.277  0.00  0.00     0.090 H 
BRANCH  43  45
ATOM     45  PBA B69 d          22.082  51.396  36.376  0.00  0.00     0.281 P 
ATOM     46  OAC B69 d          21.787  50.095  37.280  0.00  0.00    -0.639 OA
ATOM     47  OAD B69 d          22.324  50.875  34.873  0.00  0.00    -0.639 OA
ATOM     48  OAB B69 d          23.220  52.182  36.905  0.00  0.00    -0.639 OA
ENDBRANCH  43  45
BRANCH  43  49
ATOM     49  SBB B69 d          20.781  53.973  37.220  0.00  0.00     0.119 S 
ATOM     50  OAG B69 d          20.805  55.047  36.277  0.00  0.00    -0.594 OA
ATOM     51  OAF B69 d          22.079  53.926  37.967  0.00  0.00    -0.594 OA
ATOM     52  OAE B69 d          19.652  54.167  38.191  0.00  0.00    -0.594 OA
ENDBRANCH  43  49
ENDBRANCH  40  43
ENDBRANCH  37  40
ENDBRANCH  34  37
ENDBRANCH   6  34
TORSDOF 11
ENDMDL
MODEL 4
REMARK VINA RESULT:      -9.4      1.892      3.283
REMARK  11 active torsions:
REMARK  status: ('A' for Active; 'I' for Inactive)
REMARK    1  A    between atoms: CAA_1  and  CAP_2 
REMARK    2  A    between atoms: CAP_2  and  CAQ_3 
REMARK    3  A    between atoms: CAQ_3  and  CAS_4 
REMARK    4  A    between atoms: CAS_4  and  CAV_5 
REMARK    5  A    between atoms: CAX_10  and  CAY_11 
REMARK    6  A    between atoms: CAW_16  and  CAT_17 
REMARK    7  A    between atoms: CAT_17  and  CAR_18 
REMARK    8  A    between atoms: CAR_18  and  CAU_19 
REMARK    9  A    between atoms: CAU_19  and  CAZ_20 
REMARK   10  A    between atoms: CAZ_20  and  PBA_21 
REMARK   11  A    between atoms: CAZ_20  and  SBB_25 
ROOT
ATOM      1  CAY B69 d          15.913  56.155  37.713  0.00  0.00    -0.026 A 
ATOM      2  CAO B69 d          16.467  56.209  36.438  0.00  0.00    -0.072 A 
ATOM      3  CAK B69 d          17.464  55.306  36.077  0.00  0.00    -0.076 A 
ATOM      4  CAN B69 d          16.374  55.214  38.626  0.00  0.00    -0.072 A 
ATOM      5  CAJ B69 d          17.368  54.311  38.264  0.00  0.00    -0.076 A 
ATOM      6  CAW B69 d          17.911  54.354  36.985  0.00  0.00    -0.058 A 
ATOM      7  H14 B69 d          16.123  56.952  35.727  0.00  0.00     0.084 H 
ATOM      8  H15 B69 d          17.893  55.348  35.083  0.00  0.00     0.084 H 
ATOM      9  H16 B69 d          15.955  55.183  39.625  0.00  0.00     0.084 H 
ATOM     10  H17 B69 d          17.720  53.575  38.978  0.00  0.00     0.084 H 
ENDROOT
BRANCH   1  11
ATOM     11  CAX B69 d          14.825  56.961  38.032  0.00  0.00    -0.026 A 
ATOM     12  CAM B69 d          14.800  57.713  39.201  0.00  0.00    -0.072 A 
ATOM     13  CAI B69 d          13.664  58.441  39.537  0.00  0.00    -0.076 A 
ATOM     14  H11 B69 d          15.666  57.732  39.852  0.00  0.00     0.084 H 
ATOM     15  CAV B69 d          12.550  58.434  38.703  0.00  0.00    -0.058 A 
ATOM     16  H10 B69 d          13.646  59.018  40.455  0.00  0.00     0.084 H 
ATOM     17  CAH B69 d          12.570  57.670  37.543  0.00  0.00    -0.076 A 
ATOM     18  CAL B69 d          13.705  56.941  37.208  0.00  0.00    -0.072 A 
ATOM     19  H12 B69 d          11.700  57.643  36.899  0.00  0.00     0.084 H 
ATOM     20  H13 B69 d          13.717  56.351  36.298  0.00  0.00     0.084 H 
BRANCH  15  21
ATOM     21  CAS B69 d          11.429  59.458  38.902  0.00  0.00    -0.041 C 
ATOM     22  H8  B69 d          11.122  59.420  39.958  0.00  0.00     0.040 H 
ATOM     23  H9  B69 d          11.837  60.453  38.675  0.00  0.00     0.040 H 
BRANCH  21  24
ATOM     24  CAQ B69 d          10.177  59.259  38.045  0.00  0.00    -0.062 C 
ATOM     25  H6  B69 d          10.445  59.293  36.979  0.00  0.00     0.033 H 
ATOM     26  H7  B69 d           9.716  58.287  38.276  0.00  0.00     0.033 H 
BRANCH  24  27
ATOM     27  CAP B69 d           9.197  60.390  38.370  0.00  0.00    -0.068 C 
ATOM     28  H4  B69 d           8.327  60.310  37.701  0.00  0.00     0.032 H 
ATOM     29  H5  B69 d           8.866  60.285  39.414  0.00  0.00     0.032 H 
BRANCH  27  30
ATOM     30  CAA B69 d           9.834  61.768  38.191  0.00  0.00    -0.077 C 
ATOM     31  H1  B69 d          10.865  61.651  37.826  0.00  0.00     0.027 H 
ATOM     32  H2  B69 d           9.844  62.297  39.156  0.00  0.00     0.027 H 
ATOM     33  H3  B69 d           9.252  62.350  37.461  0.00  0.00     0.027 H 
ENDBRANCH  27  30
ENDBRANCH  24  27
ENDBRANCH  21  24
ENDBRANCH  15  21
ENDBRANCH   1  11
BRANCH   6  34
ATOM     34  CAT B69 d          18.974  53.338  36.552  0.00  0.00    -0.041 C 
ATOM     35  H18 B69 d          19.460  53.698  35.633  0.00  0.00     0.040 H 
ATOM     36  H19 B69 d          18.486  52.372  36.355  0.00  0.00     0.040 H 
BRANCH  34  37
ATOM     37  CAR B69 d          20.038  53.145  37.634  0.00  0.00    -0.059 C 
ATOM     38  H20 B69 d          19.775  52.268  38.244  0.00  0.00     0.033 H 
ATOM     39  H21 B69 d          20.068  54.040  38.272  0.00  0.00     0.033 H 
BRANCH  37  40
ATOM     40  CAU B69 d          21.420  52.925  37.015  0.00  0.00    -0.034 C 
ATOM     41  H22 B69 d          22.133  53.608  37.498  0.00  0.00     0.036 H 
ATOM     42  H23 B69 d          21.363  53.153  35.940  0.00  0.00     0.036 H 
BRANCH  40  43
ATOM     43  CAZ B69 d          21.927  51.493  37.182  0.00  0.00     0.169 C 
ATOM     44  H24 B69 d          21.452  51.044  38.067  0.00  0.00     0.090 H 
BRANCH  43  45
ATOM     45  PBA B69 d          23.752  51.474  37.415  0.00  0.00     0.281 P 
ATOM     46  OAC B69 d          24.143  52.779  38.274  0.00  0.00    -0.639 OA
ATOM     47  OAD B69 d          24.070  50.195  38.338  0.00  0.00    -0.639 OA
ATOM     48  OAB B69 d          24.464  51.441  36.117  0.00  0.00    -0.639 OA
ENDBRANCH  43  45
BRANCH  43  49
ATOM     49  SBB B69 d          21.473  50.522  35.698  0.00  0.00     0.119 S 
ATOM     50  OAG B69 d          20.115  50.092  35.817  0.00  0.00    -0.594 OA
ATOM     51  OAF B69 d          22.374  49.330  35.589  0.00  0.00    -0.594 OA
ATOM     52  OAE B69 d          21.634  51.384  34.479  0.00  0.00    -0.594 OA
ENDBRANCH  43  49
ENDBRANCH  40  43
ENDBRANCH  37  40
ENDBRANCH  34  37
ENDBRANCH   6  34
TORSDOF 11
ENDMDL
MODEL 5
REMARK VINA RESULT:      -8.1      1.652      2.575
REMARK  11 active torsions:
REMARK  status: ('A' for Active; 'I' for Inactive)
REMARK    1  A    between atoms: CAA_1  and  CAP_2 
REMARK    2  A    between atoms: CAP_2  and  CAQ_3 
REMARK    3  A    between atoms: CAQ_3  and  CAS_4 
REMARK    4  A    between atoms: CAS_4  and  CAV_5 
REMARK    5  A    between atoms: CAX_10  and  CAY_11 
REMARK    6  A    between atoms: CAW_16  and  CAT_17 
REMARK    7  A    between atoms: CAT_17  and  CAR_18 
REMARK    8  A    between atoms: CAR_18  and  CAU_19 
REMARK    9  A    between atoms: CAU_19  and  CAZ_20 
REMARK   10  A    between atoms: CAZ_20  and  PBA_21 
REMARK   11  A    between atoms: CAZ_20  and  SBB_25 
ROOT
ATOM      1  CAY B69 d          15.233  56.616  37.727  0.00  0.00    -0.026 A 
ATOM      2  CAO B69 d          15.604  56.572  36.387  0.00  0.00    -0.072 A 
ATOM      3  CAK B69 d          16.614  55.706  35.976  0.00  0.00    -0.076 A 
ATOM      4  CAN B69 d          15.887  55.811  38.651  0.00  0.00    -0.072 A 
ATOM      5  CAJ B69 d          16.895  54.944  38.240  0.00  0.00    -0.076 A 
ATOM      6  CAW B69 d          17.255  54.887  36.898  0.00  0.00    -0.058 A 
ATOM      7  H14 B69 d          15.108  57.211  35.665  0.00  0.00     0.084 H 
ATOM      8  H15 B69 d          16.901  55.671  34.931  0.00  0.00     0.084 H 
ATOM      9  H16 B69 d          15.611  55.858  39.698  0.00  0.00     0.084 H 
ATOM     10  H17 B69 d          17.398  54.313  38.964  0.00  0.00     0.084 H 
ENDROOT
BRANCH   1  11
ATOM     11  CAX B69 d          14.136  57.376  38.119  0.00  0.00    -0.026 A 
ATOM     12  CAM B69 d          14.152  58.117  39.295  0.00  0.00    -0.072 A 
ATOM     13  CAI B69 d          13.010  58.798  39.706  0.00  0.00    -0.076 A 
ATOM     14  H11 B69 d          15.055  58.165  39.893  0.00  0.00     0.084 H 
ATOM     15  CAV B69 d          11.849  58.753  38.940  0.00  0.00    -0.058 A 
ATOM     16  H10 B69 d          13.025  59.366  40.629  0.00  0.00     0.084 H 
ATOM     17  CAH B69 d          11.830  58.000  37.773  0.00  0.00    -0.076 A 
ATOM     18  CAL B69 d          12.970  57.318  37.363  0.00  0.00    -0.072 A 
ATOM     19  H12 B69 d          10.923  57.943  37.182  0.00  0.00     0.084 H 
ATOM     20  H13 B69 d          12.950  56.737  36.448  0.00  0.00     0.084 H 
BRANCH  15  21
ATOM     21  CAS B69 d          10.703  59.730  39.217  0.00  0.00    -0.041 C 
ATOM     22  H8  B69 d          10.517  59.732  40.301  0.00  0.00     0.040 H 
ATOM     23  H9  B69 d          11.030  60.731  38.899  0.00  0.00     0.040 H 
BRANCH  21  24
ATOM     24  CAQ B69 d           9.377  59.426  38.515  0.00  0.00    -0.062 C 
ATOM     25  H6  B69 d           9.563  58.837  37.605  0.00  0.00     0.033 H 
ATOM     26  H7  B69 d           8.719  58.860  39.191  0.00  0.00     0.033 H 
BRANCH  24  27
ATOM     27  CAP B69 d           8.722  60.761  38.146  0.00  0.00    -0.068 C 
ATOM     28  H4  B69 d           8.150  60.630  37.215  0.00  0.00     0.032 H 
ATOM     29  H5  B69 d           8.040  61.058  38.956  0.00  0.00     0.032 H 
BRANCH  27  30
ATOM     30  CAA B69 d           9.756  61.868  37.940  0.00  0.00    -0.077 C 
ATOM     31  H1  B69 d          10.768  61.447  38.037  0.00  0.00     0.027 H 
ATOM     32  H2  B69 d           9.611  62.651  38.699  0.00  0.00     0.027 H 
ATOM     33  H3  B69 d           9.634  62.303  36.937  0.00  0.00     0.027 H 
ENDBRANCH  27  30
ENDBRANCH  24  27
ENDBRANCH  21  24
ENDBRANCH  15  21
ENDBRANCH   1  11
BRANCH   6  34
ATOM     34  CAT B69 d          18.330  53.905  36.417  0.00  0.00    -0.041 C 
ATOM     35  H18 B69 d          18.928  54.387  35.630  0.00  0.00     0.040 H 
ATOM     36  H19 B69 d          17.838  53.010  36.010  0.00  0.00     0.040 H 
BRANCH  34  37
ATOM     37  CAR B69 d          19.257  53.487  37.560  0.00  0.00    -0.059 C 
ATOM     38  H20 B69 d          18.739  53.640  38.518  0.00  0.00     0.033 H 
ATOM     39  H21 B69 d          20.165  54.107  37.531  0.00  0.00     0.033 H 
BRANCH  37  40
ATOM     40  CAU B69 d          19.654  52.014  37.436  0.00  0.00    -0.034 C 
ATOM     41  H22 B69 d          18.759  51.395  37.599  0.00  0.00     0.036 H 
ATOM     42  H23 B69 d          20.404  51.787  38.208  0.00  0.00     0.036 H 
BRANCH  40  43
ATOM     43  CAZ B69 d          20.241  51.668  36.067  0.00  0.00     0.169 C 
ATOM     44  H24 B69 d          20.260  52.575  35.444  0.00  0.00     0.090 H 
BRANCH  43  45
ATOM     45  PBA B69 d          19.219  50.391  35.226  0.00  0.00     0.281 P 
ATOM     46  OAC B69 d          18.358  49.638  36.360  0.00  0.00    -0.639 OA
ATOM     47  OAD B69 d          18.174  51.194  34.303  0.00  0.00    -0.639 OA
ATOM     48  OAB B69 d          20.058  49.443  34.459  0.00  0.00    -0.639 OA
ENDBRANCH  43  45
BRANCH  43  49
ATOM     49  SBB B69 d          21.952  51.056  36.292  0.00  0.00     0.119 S 
ATOM     50  OAG B69 d          22.529  50.796  35.010  0.00  0.00    -0.594 OA
ATOM     51  OAF B69 d          21.926  49.795  37.101  0.00  0.00    -0.594 OA
ATOM     52  OAE B69 d          22.756  52.098  37.015  0.00  0.00    -0.594 OA
ENDBRANCH  43  49
ENDBRANCH  40  43
ENDBRANCH  37  40
ENDBRANCH  34  37
ENDBRANCH   6  34
TORSDOF 11
ENDMDL
MODEL 6
REMARK VINA RESULT:      -8.0      1.462      2.482
REMARK  11 active torsions:
REMARK  status: ('A' for Active; 'I' for Inactive)
REMARK    1  A    between atoms: CAA_1  and  CAP_2 
REMARK    2  A    between atoms: CAP_2  and  CAQ_3 
REMARK    3  A    between atoms: CAQ_3  and  CAS_4 
REMARK    4  A    between atoms: CAS_4  and  CAV_5 
REMARK    5  A    between atoms: CAX_10  and  CAY_11 
REMARK    6  A    between atoms: CAW_16  and  CAT_17 
REMARK    7  A    between atoms: CAT_17  and  CAR_18 
REMARK    8  A    between atoms: CAR_18  and  CAU_19 
REMARK    9  A    between atoms: CAU_19  and  CAZ_20 
REMARK   10  A    between atoms: CAZ_20  and  PBA_21 
REMARK   11  A    between atoms: CAZ_20  and  SBB_25 
ROOT
ATOM      1  CAY B69 d          14.397  57.379  38.637  0.00  0.00    -0.026 A 
ATOM      2  CAO B69 d          14.836  56.751  39.798  0.00  0.00    -0.072 A 
ATOM      3  CAK B69 d          15.808  55.758  39.723  0.00  0.00    -0.076 A 
ATOM      4  CAN B69 d          14.918  56.997  37.407  0.00  0.00    -0.072 A 
ATOM      5  CAJ B69 d          15.892  56.006  37.333  0.00  0.00    -0.076 A 
ATOM      6  CAW B69 d          16.342  55.388  38.495  0.00  0.00    -0.058 A 
ATOM      7  H14 B69 d          14.421  57.034  40.759  0.00  0.00     0.084 H 
ATOM      8  H15 B69 d          16.151  55.270  40.629  0.00  0.00     0.084 H 
ATOM      9  H16 B69 d          14.564  57.474  36.500  0.00  0.00     0.084 H 
ATOM     10  H17 B69 d          16.299  55.715  36.371  0.00  0.00     0.084 H 
ENDROOT
BRANCH   1  11
ATOM     11  CAX B69 d          13.530  58.464  38.720  0.00  0.00    -0.026 A 
ATOM     12  CAM B69 d          14.009  59.766  38.817  0.00  0.00    -0.072 A 
ATOM     13  CAI B69 d          13.122  60.824  38.986  0.00  0.00    -0.076 A 
ATOM     14  H11 B69 d          15.074  59.957  38.760  0.00  0.00     0.084 H 
ATOM     15  CAV B69 d          11.751  60.591  39.048  0.00  0.00    -0.058 A 
ATOM     16  H10 B69 d          13.500  61.836  39.070  0.00  0.00     0.084 H 
ATOM     17  CAH B69 d          11.275  59.289  38.967  0.00  0.00    -0.076 A 
ATOM     18  CAL B69 d          12.162  58.231  38.800  0.00  0.00    -0.072 A 
ATOM     19  H12 B69 d          10.211  59.096  39.035  0.00  0.00     0.084 H 
ATOM     20  H13 B69 d          11.784  57.217  38.730  0.00  0.00     0.084 H 
BRANCH  15  21
ATOM     21  CAS B69 d          10.763  61.755  38.926  0.00  0.00    -0.041 C 
ATOM     22  H8  B69 d          10.254  61.866  39.895  0.00  0.00     0.040 H 
ATOM     23  H9  B69 d          11.341  62.665  38.710  0.00  0.00     0.040 H 
BRANCH  21  24
ATOM     24  CAQ B69 d           9.689  61.614  37.846  0.00  0.00    -0.062 C 
ATOM     25  H6  B69 d           9.460  62.600  37.416  0.00  0.00     0.033 H 
ATOM     26  H7  B69 d          10.044  60.941  37.051  0.00  0.00     0.033 H 
BRANCH  24  27
ATOM     27  CAP B69 d           8.434  61.029  38.502  0.00  0.00    -0.068 C 
ATOM     28  H4  B69 d           8.441  61.282  39.572  0.00  0.00     0.032 H 
ATOM     29  H5  B69 d           7.546  61.471  38.028  0.00  0.00     0.032 H 
BRANCH  27  30
ATOM     30  CAA B69 d           8.367  59.509  38.353  0.00  0.00    -0.077 C 
ATOM     31  H1  B69 d           7.388  59.223  37.942  0.00  0.00     0.027 H 
ATOM     32  H2  B69 d           8.503  59.037  39.338  0.00  0.00     0.027 H 
ATOM     33  H3  B69 d           9.163  59.171  37.673  0.00  0.00     0.027 H 
ENDBRANCH  27  30
ENDBRANCH  24  27
ENDBRANCH  21  24
ENDBRANCH  15  21
ENDBRANCH   1  11
BRANCH   6  34
ATOM     34  CAT B69 d          17.447  54.328  38.438  0.00  0.00    -0.041 C 
ATOM     35  H18 B69 d          17.096  53.418  38.948  0.00  0.00     0.040 H 
ATOM     36  H19 B69 d          18.340  54.715  38.951  0.00  0.00     0.040 H 
BRANCH  34  37
ATOM     37  CAR B69 d          17.815  53.978  36.995  0.00  0.00    -0.059 C 
ATOM     38  H20 B69 d          17.623  54.850  36.354  0.00  0.00     0.033 H 
ATOM     39  H21 B69 d          17.195  53.133  36.662  0.00  0.00     0.033 H 
BRANCH  37  40
ATOM     40  CAU B69 d          19.291  53.590  36.882  0.00  0.00    -0.034 C 
ATOM     41  H22 B69 d          19.859  54.149  37.640  0.00  0.00     0.036 H 
ATOM     42  H23 B69 d          19.650  53.864  35.878  0.00  0.00     0.036 H 
BRANCH  40  43
ATOM     43  CAZ B69 d          19.533  52.096  37.095  0.00  0.00     0.169 C 
ATOM     44  H24 B69 d          19.491  51.875  38.172  0.00  0.00     0.090 H 
BRANCH  43  45
ATOM     45  PBA B69 d          21.186  51.608  36.453  0.00  0.00     0.281 P 
ATOM     46  OAC B69 d          22.257  52.671  37.019  0.00  0.00    -0.639 OA
ATOM     47  OAD B69 d          21.529  50.192  37.136  0.00  0.00    -0.639 OA
ATOM     48  OAB B69 d          21.200  51.555  34.973  0.00  0.00    -0.639 OA
ENDBRANCH  43  45
BRANCH  43  49
ATOM     49  SBB B69 d          18.222  51.151  36.236  0.00  0.00     0.119 S 
ATOM     50  OAG B69 d          17.153  50.895  37.150  0.00  0.00    -0.594 OA
ATOM     51  OAF B69 d          18.787  49.854  35.741  0.00  0.00    -0.594 OA
ATOM     52  OAE B69 d          17.719  51.955  35.071  0.00  0.00    -0.594 OA
ENDBRANCH  43  49
ENDBRANCH  40  43
ENDBRANCH  37  40
ENDBRANCH  34  37
ENDBRANCH   6  34
TORSDOF 11
ENDMDL
MODEL 7
REMARK VINA RESULT:      -8.0      2.086      3.410
REMARK  11 active torsions:
REMARK  status: ('A' for Active; 'I' for Inactive)
REMARK    1  A    between atoms: CAA_1  and  CAP_2 
REMARK    2  A    between atoms: CAP_2  and  CAQ_3 
REMARK    3  A    between atoms: CAQ_3  and  CAS_4 
REMARK    4  A    between atoms: CAS_4  and  CAV_5 
REMARK    5  A    between atoms: CAX_10  and  CAY_11 
REMARK    6  A    between atoms: CAW_16  and  CAT_17 
REMARK    7  A    between atoms: CAT_17  and  CAR_18 
REMARK    8  A    between atoms: CAR_18  and  CAU_19 
REMARK    9  A    between atoms: CAU_19  and  CAZ_20 
REMARK   10  A    between atoms: CAZ_20  and  PBA_21 
REMARK   11  A    between atoms: CAZ_20  and  SBB_25 
ROOT
ATOM      1  CAY B69 d          16.317  54.953  37.852  0.00  0.00    -0.026 A 
ATOM      2  CAO B69 d          16.237  53.783  38.601  0.00  0.00    -0.072 A 
ATOM      3  CAK B69 d          17.251  52.833  38.511  0.00  0.00    -0.076 A 
ATOM      4  CAN B69 d          17.398  55.157  37.004  0.00  0.00    -0.072 A 
ATOM      5  CAJ B69 d          18.412  54.209  36.917  0.00  0.00    -0.076 A 
ATOM      6  CAW B69 d          18.341  53.046  37.676  0.00  0.00    -0.058 A 
ATOM      7  H14 B69 d          15.388  53.612  39.252  0.00  0.00     0.084 H 
ATOM      8  H15 B69 d          17.189  51.923  39.096  0.00  0.00     0.084 H 
ATOM      9  H16 B69 d          17.452  56.060  36.407  0.00  0.00     0.084 H 
ATOM     10  H17 B69 d          19.257  54.375  36.257  0.00  0.00     0.084 H 
ENDROOT
BRANCH   1  11
ATOM     11  CAX B69 d          15.380  55.963  38.042  0.00  0.00    -0.026 A 
ATOM     12  CAM B69 d          14.467  56.299  37.048  0.00  0.00    -0.072 A 
ATOM     13  CAI B69 d          13.599  57.370  37.231  0.00  0.00    -0.076 A 
ATOM     14  H11 B69 d          14.432  55.726  36.129  0.00  0.00     0.084 H 
ATOM     15  CAV B69 d          13.627  58.106  38.412  0.00  0.00    -0.058 A 
ATOM     16  H10 B69 d          12.897  57.634  36.449  0.00  0.00     0.084 H 
ATOM     17  CAH B69 d          14.549  57.779  39.398  0.00  0.00    -0.076 A 
ATOM     18  CAL B69 d          15.418  56.710  39.215  0.00  0.00    -0.072 A 
ATOM     19  H12 B69 d          14.592  58.360  40.312  0.00  0.00     0.084 H 
ATOM     20  H13 B69 d          16.131  56.456  39.991  0.00  0.00     0.084 H 
BRANCH  15  21
ATOM     21  CAS B69 d          12.489  59.074  38.746  0.00  0.00    -0.041 C 
ATOM     22  H8  B69 d          11.944  58.668  39.611  0.00  0.00     0.040 H 
ATOM     23  H9  B69 d          12.939  60.040  39.018  0.00  0.00     0.040 H 
BRANCH  21  24
ATOM     24  CAQ B69 d          11.473  59.328  37.630  0.00  0.00    -0.062 C 
ATOM     25  H6  B69 d          11.838  60.127  36.968  0.00  0.00     0.033 H 
ATOM     26  H7  B69 d          11.322  58.408  37.047  0.00  0.00     0.033 H 
BRANCH  24  27
ATOM     27  CAP B69 d          10.154  59.756  38.281  0.00  0.00    -0.068 C 
ATOM     28  H4  B69 d           9.328  59.532  37.590  0.00  0.00     0.032 H 
ATOM     29  H5  B69 d          10.016  59.187  39.212  0.00  0.00     0.032 H 
BRANCH  27  30
ATOM     30  CAA B69 d          10.135  61.249  38.608  0.00  0.00    -0.077 C 
ATOM     31  H1  B69 d           9.138  61.660  38.388  0.00  0.00     0.027 H 
ATOM     32  H2  B69 d          10.888  61.768  37.996  0.00  0.00     0.027 H 
ATOM     33  H3  B69 d          10.364  61.395  39.673  0.00  0.00     0.027 H 
ENDBRANCH  27  30
ENDBRANCH  24  27
ENDBRANCH  21  24
ENDBRANCH  15  21
ENDBRANCH   1  11
BRANCH   6  34
ATOM     34  CAT B69 d          19.471  52.011  37.629  0.00  0.00    -0.041 C 
ATOM     35  H18 B69 d          19.043  51.025  37.394  0.00  0.00     0.040 H 
ATOM     36  H19 B69 d          19.962  51.973  38.613  0.00  0.00     0.040 H 
BRANCH  34  37
ATOM     37  CAR B69 d          20.513  52.367  36.567  0.00  0.00    -0.059 C 
ATOM     38  H20 B69 d          20.375  53.415  36.265  0.00  0.00     0.033 H 
ATOM     39  H21 B69 d          20.374  51.712  35.694  0.00  0.00     0.033 H 
BRANCH  37  40
ATOM     40  CAU B69 d          21.933  52.186  37.107  0.00  0.00    -0.034 C 
ATOM     41  H22 B69 d          21.891  51.537  37.994  0.00  0.00     0.036 H 
ATOM     42  H23 B69 d          22.329  53.173  37.392  0.00  0.00     0.036 H 
BRANCH  40  43
ATOM     43  CAZ B69 d          22.883  51.556  36.088  0.00  0.00     0.169 C 
ATOM     44  H24 B69 d          23.134  52.303  35.321  0.00  0.00     0.090 H 
BRANCH  43  45
ATOM     45  PBA B69 d          22.092  50.110  35.272  0.00  0.00     0.281 P 
ATOM     46  OAC B69 d          23.250  49.297  34.501  0.00  0.00    -0.639 OA
ATOM     47  OAD B69 d          21.567  49.159  36.460  0.00  0.00    -0.639 OA
ATOM     48  OAB B69 d          21.013  50.530  34.349  0.00  0.00    -0.639 OA
ENDBRANCH  43  45
BRANCH  43  49
ATOM     49  SBB B69 d          24.414  51.034  36.944  0.00  0.00     0.119 S 
ATOM     50  OAG B69 d          25.241  50.313  36.028  0.00  0.00    -0.594 OA
ATOM     51  OAF B69 d          24.059  50.155  38.106  0.00  0.00    -0.594 OA
ATOM     52  OAE B69 d          25.139  52.251  37.442  0.00  0.00    -0.594 OA
ENDBRANCH  43  49
ENDBRANCH  40  43
ENDBRANCH  37  40
ENDBRANCH  34  37
ENDBRANCH   6  34
TORSDOF 11
ENDMDL
MODEL 8
REMARK VINA RESULT:      -7.5      1.555      2.339
REMARK  11 active torsions:
REMARK  status: ('A' for Active; 'I' for Inactive)
REMARK    1  A    between atoms: CAA_1  and  CAP_2 
REMARK    2  A    between atoms: CAP_2  and  CAQ_3 
REMARK    3  A    between atoms: CAQ_3  and  CAS_4 
REMARK    4  A    between atoms: CAS_4  and  CAV_5 
REMARK    5  A    between atoms: CAX_10  and  CAY_11 
REMARK    6  A    between atoms: CAW_16  and  CAT_17 
REMARK    7  A    between atoms: CAT_17  and  CAR_18 
REMARK    8  A    between atoms: CAR_18  and  CAU_19 
REMARK    9  A    between atoms: CAU_19  and  CAZ_20 
REMARK   10  A    between atoms: CAZ_20  and  PBA_21 
REMARK   11  A    between atoms: CAZ_20  and  SBB_25 
ROOT
ATOM      1  CAY B69 d          14.246  57.470  38.948  0.00  0.00    -0.026 A 
ATOM      2  CAO B69 d          14.809  56.940  40.105  0.00  0.00    -0.072 A 
ATOM      3  CAK B69 d          15.794  55.960  40.009  0.00  0.00    -0.076 A 
ATOM      4  CAN B69 d          14.656  57.004  37.705  0.00  0.00    -0.072 A 
ATOM      5  CAJ B69 d          15.642  56.027  37.611  0.00  0.00    -0.076 A 
ATOM      6  CAW B69 d          16.216  55.508  38.766  0.00  0.00    -0.058 A 
ATOM      7  H14 B69 d          14.481  57.288  41.078  0.00  0.00     0.084 H 
ATOM      8  H15 B69 d          16.233  55.549  40.911  0.00  0.00     0.084 H 
ATOM      9  H16 B69 d          14.205  57.404  36.804  0.00  0.00     0.084 H 
ATOM     10  H17 B69 d          15.962  55.671  36.638  0.00  0.00     0.084 H 
ENDROOT
BRANCH   1  11
ATOM     11  CAX B69 d          13.365  58.543  39.035  0.00  0.00    -0.026 A 
ATOM     12  CAM B69 d          13.788  59.847  38.803  0.00  0.00    -0.072 A 
ATOM     13  CAI B69 d          12.907  60.908  38.981  0.00  0.00    -0.076 A 
ATOM     14  H11 B69 d          14.806  60.037  38.484  0.00  0.00     0.084 H 
ATOM     15  CAV B69 d          11.594  60.675  39.379  0.00  0.00    -0.058 A 
ATOM     16  H10 B69 d          13.245  61.923  38.809  0.00  0.00     0.084 H 
ATOM     17  CAH B69 d          11.177  59.373  39.625  0.00  0.00    -0.076 A 
ATOM     18  CAL B69 d          12.058  58.312  39.449  0.00  0.00    -0.072 A 
ATOM     19  H12 B69 d          10.162  59.184  39.956  0.00  0.00     0.084 H 
ATOM     20  H13 B69 d          11.724  57.298  39.636  0.00  0.00     0.084 H 
BRANCH  15  21
ATOM     21  CAS B69 d          10.548  61.788  39.282  0.00  0.00    -0.041 C 
ATOM     22  H8  B69 d           9.797  61.614  40.067  0.00  0.00     0.040 H 
ATOM     23  H9  B69 d          11.056  62.745  39.468  0.00  0.00     0.040 H 
BRANCH  21  24
ATOM     24  CAQ B69 d           9.809  61.902  37.947  0.00  0.00    -0.062 C 
ATOM     25  H6  B69 d           8.815  62.343  38.107  0.00  0.00     0.033 H 
ATOM     26  H7  B69 d          10.385  62.535  37.255  0.00  0.00     0.033 H 
BRANCH  24  27
ATOM     27  CAP B69 d           9.665  60.492  37.366  0.00  0.00    -0.068 C 
ATOM     28  H4  B69 d           9.704  59.763  38.188  0.00  0.00     0.032 H 
ATOM     29  H5  B69 d           8.694  60.415  36.855  0.00  0.00     0.032 H 
BRANCH  27  30
ATOM     30  CAA B69 d          10.776  60.169  36.366  0.00  0.00    -0.077 C 
ATOM     31  H1  B69 d          11.755  60.330  36.841  0.00  0.00     0.027 H 
ATOM     32  H2  B69 d          10.682  60.826  35.488  0.00  0.00     0.027 H 
ATOM     33  H3  B69 d          10.691  59.119  36.049  0.00  0.00     0.027 H 
ENDBRANCH  27  30
ENDBRANCH  24  27
ENDBRANCH  21  24
ENDBRANCH  15  21
ENDBRANCH   1  11
BRANCH   6  34
ATOM     34  CAT B69 d          17.336  54.465  38.681  0.00  0.00    -0.041 C 
ATOM     35  H18 B69 d          16.889  53.467  38.563  0.00  0.00     0.040 H 
ATOM     36  H19 B69 d          17.925  54.496  39.610  0.00  0.00     0.040 H 
BRANCH  34  37
ATOM     37  CAR B69 d          18.265  54.735  37.496  0.00  0.00    -0.059 C 
ATOM     38  H20 B69 d          18.613  55.778  37.542  0.00  0.00     0.033 H 
ATOM     39  H21 B69 d          17.709  54.575  36.560  0.00  0.00     0.033 H 
BRANCH  37  40
ATOM     40  CAU B69 d          19.478  53.803  37.523  0.00  0.00    -0.034 C 
ATOM     41  H22 B69 d          19.426  53.186  38.432  0.00  0.00     0.036 H 
ATOM     42  H23 B69 d          20.392  54.416  37.547  0.00  0.00     0.036 H 
BRANCH  40  43
ATOM     43  CAZ B69 d          19.545  52.876  36.309  0.00  0.00     0.169 C 
ATOM     44  H24 B69 d          19.517  53.483  35.391  0.00  0.00     0.090 H 
BRANCH  43  45
ATOM     45  PBA B69 d          18.117  51.717  36.297  0.00  0.00     0.281 P 
ATOM     46  OAC B69 d          17.784  51.346  37.829  0.00  0.00    -0.639 OA
ATOM     47  OAD B69 d          16.865  52.559  35.739  0.00  0.00    -0.639 OA
ATOM     48  OAB B69 d          18.405  50.508  35.492  0.00  0.00    -0.639 OA
ENDBRANCH  43  45
BRANCH  43  49
ATOM     49  SBB B69 d          21.116  51.937  36.362  0.00  0.00     0.119 S 
ATOM     50  OAG B69 d          20.945  50.783  37.187  0.00  0.00    -0.594 OA
ATOM     51  OAF B69 d          22.196  52.809  36.928  0.00  0.00    -0.594 OA
ATOM     52  OAE B69 d          21.488  51.522  34.968  0.00  0.00    -0.594 OA
ENDBRANCH  43  49
ENDBRANCH  40  43
ENDBRANCH  37  40
ENDBRANCH  34  37
ENDBRANCH   6  34
TORSDOF 11
ENDMDL
MODEL 9
REMARK VINA RESULT:      -7.1      5.766     10.670
REMARK  11 active torsions:
REMARK  status: ('A' for Active; 'I' for Inactive)
REMARK    1  A    between atoms: CAA_1  and  CAP_2 
REMARK    2  A    between atoms: CAP_2  and  CAQ_3 
REMARK    3  A    between atoms: CAQ_3  and  CAS_4 
REMARK    4  A    between atoms: CAS_4  and  CAV_5 
REMARK    5  A    between atoms: CAX_10  and  CAY_11 
REMARK    6  A    between atoms: CAW_16  and  CAT_17 
REMARK    7  A    between atoms: CAT_17  and  CAR_18 
REMARK    8  A    between atoms: CAR_18  and  CAU_19 
REMARK    9  A    between atoms: CAU_19  and  CAZ_20 
REMARK   10  A    between atoms: CAZ_20  and  PBA_21 
REMARK   11  A    between atoms: CAZ_20  and  SBB_25 
ROOT
ATOM      1  CAY B69 d          17.341  53.601  37.379  0.00  0.00    -0.026 A 
ATOM      2  CAO B69 d          17.380  54.959  37.079  0.00  0.00    -0.072 A 
ATOM      3  CAK B69 d          16.616  55.855  37.822  0.00  0.00    -0.076 A 
ATOM      4  CAN B69 d          16.522  53.145  38.404  0.00  0.00    -0.072 A 
ATOM      5  CAJ B69 d          15.759  54.041  39.147  0.00  0.00    -0.076 A 
ATOM      6  CAW B69 d          15.810  55.400  38.859  0.00  0.00    -0.058 A 
ATOM      7  H14 B69 d          18.005  55.319  36.270  0.00  0.00     0.084 H 
ATOM      8  H15 B69 d          16.648  56.913  37.589  0.00  0.00     0.084 H 
ATOM      9  H16 B69 d          16.477  52.085  38.627  0.00  0.00     0.084 H 
ATOM     10  H17 B69 d          15.126  53.680  39.950  0.00  0.00     0.084 H 
ENDROOT
BRANCH   1  11
ATOM     11  CAX B69 d          18.205  52.723  36.734  0.00  0.00    -0.026 A 
ATOM     12  CAM B69 d          17.740  51.549  36.150  0.00  0.00    -0.072 A 
ATOM     13  CAI B69 d          18.637  50.648  35.588  0.00  0.00    -0.076 A 
ATOM     14  H11 B69 d          16.677  51.338  36.133  0.00  0.00     0.084 H 
ATOM     15  CAV B69 d          20.002  50.916  35.593  0.00  0.00    -0.058 A 
ATOM     16  H10 B69 d          18.270  49.730  35.143  0.00  0.00     0.084 H 
ATOM     17  CAH B69 d          20.467  52.080  36.190  0.00  0.00    -0.076 A 
ATOM     18  CAL B69 d          19.571  52.981  36.754  0.00  0.00    -0.072 A 
ATOM     19  H12 B69 d          21.531  52.287  36.218  0.00  0.00     0.084 H 
ATOM     20  H13 B69 d          19.939  53.892  37.213  0.00  0.00     0.084 H 
BRANCH  15  21
ATOM     21  CAS B69 d          20.955  50.094  34.720  0.00  0.00    -0.041 C 
ATOM     22  H8  B69 d          21.011  49.081  35.146  0.00  0.00     0.040 H 
ATOM     23  H9  B69 d          20.525  50.043  33.709  0.00  0.00     0.040 H 
BRANCH  21  24
ATOM     24  CAQ B69 d          22.383  50.629  34.596  0.00  0.00    -0.062 C 
ATOM     25  H6  B69 d          22.721  50.552  33.553  0.00  0.00     0.033 H 
ATOM     26  H7  B69 d          22.417  51.681  34.916  0.00  0.00     0.033 H 
BRANCH  24  27
ATOM     27  CAP B69 d          23.285  49.781  35.499  0.00  0.00    -0.068 C 
ATOM     28  H4  B69 d          22.658  49.081  36.071  0.00  0.00     0.032 H 
ATOM     29  H5  B69 d          23.985  49.213  34.869  0.00  0.00     0.032 H 
BRANCH  27  30
ATOM     30  CAA B69 d          24.086  50.641  36.476  0.00  0.00    -0.077 C 
ATOM     31  H1  B69 d          25.097  50.221  36.591  0.00  0.00     0.027 H 
ATOM     32  H2  B69 d          23.581  50.653  37.454  0.00  0.00     0.027 H 
ATOM     33  H3  B69 d          24.158  51.668  36.088  0.00  0.00     0.027 H 
ENDBRANCH  27  30
ENDBRANCH  24  27
ENDBRANCH  21  24
ENDBRANCH  15  21
ENDBRANCH   1  11
BRANCH   6  34
ATOM     34  CAT B69 d          15.014  56.408  39.695  0.00  0.00    -0.041 C 
ATOM     35  H18 B69 d          15.421  56.424  40.718  0.00  0.00     0.040 H 
ATOM     36  H19 B69 d          13.960  56.094  39.724  0.00  0.00     0.040 H 
BRANCH  34  37
ATOM     37  CAR B69 d          15.097  57.817  39.105  0.00  0.00    -0.059 C 
ATOM     38  H20 B69 d          15.217  57.742  38.014  0.00  0.00     0.033 H 
ATOM     39  H21 B69 d          15.967  58.335  39.535  0.00  0.00     0.033 H 
BRANCH  37  40
ATOM     40  CAU B69 d          13.832  58.619  39.415  0.00  0.00    -0.034 C 
ATOM     41  H22 B69 d          14.091  59.425  40.117  0.00  0.00     0.036 H 
ATOM     42  H23 B69 d          13.096  57.947  39.883  0.00  0.00     0.036 H 
BRANCH  40  43
ATOM     43  CAZ B69 d          13.200  59.242  38.170  0.00  0.00     0.169 C 
ATOM     44  H24 B69 d          13.967  59.815  37.627  0.00  0.00     0.090 H 
BRANCH  43  45
ATOM     45  PBA B69 d          11.830  60.376  38.636  0.00  0.00     0.281 P 
ATOM     46  OAC B69 d          10.936  59.624  39.745  0.00  0.00    -0.639 OA
ATOM     47  OAD B69 d          12.520  61.632  39.367  0.00  0.00    -0.639 OA
ATOM     48  OAB B69 d          11.023  60.766  37.457  0.00  0.00    -0.639 OA
ENDBRANCH  43  45
BRANCH  43  49
ATOM     49  SBB B69 d          12.570  57.905  37.090  0.00  0.00     0.119 S 
ATOM     50  OAG B69 d          11.772  57.010  37.868  0.00  0.00    -0.594 OA
ATOM     51  OAF B69 d          13.728  57.162  36.493  0.00  0.00    -0.594 OA
ATOM     52  OAE B69 d          11.743  58.508  35.991  0.00  0.00    -0.594 OA
ENDBRANCH  43  49
ENDBRANCH  40  43
ENDBRANCH  37  40
ENDBRANCH  34  37
ENDBRANCH   6  34
TORSDOF 11
ENDMDL
