MODEL 1
REMARK VINA RESULT:      -7.3      0.000      0.000
REMARK  4 active torsions:
REMARK  status: ('A' for Active; 'I' for Inactive)
REMARK    1  A    between atoms: OH_1  and  CZ3_2 
REMARK    2  A    between atoms: CG_8  and  CB_11 
REMARK    3  A    between atoms: CB_11  and  CA_12 
REMARK    4  A    between atoms: CA_12  and  NZ_13 
ROOT
ATOM      1  CZ3 SRO d          13.341   9.922   9.908  0.00  0.00     0.066 A 
ATOM      2  CH2 SRO d          14.373  10.402   9.084  0.00  0.00    -0.049 A 
ATOM      3  CZ2 SRO d          14.418  10.071   7.730  0.00  0.00    -0.054 A 
ATOM      4  CE2 SRO d          13.407   9.256   7.170  0.00  0.00     0.043 A 
ATOM      5  NE1 SRO d          13.210   8.778   5.883  0.00  0.00    -0.365 N 
ATOM      6  CD1 SRO d          12.090   8.025   5.857  0.00  0.00    -0.015 A 
ATOM      7  CG  SRO d          11.557   8.004   7.145  0.00  0.00    -0.029 A 
ATOM      8  CD2 SRO d          12.398   8.782   7.974  0.00  0.00     0.001 A 
ATOM      9  CE3 SRO d          12.356   9.108   9.351  0.00  0.00    -0.038 A 
ATOM     10  H2  SRO d          15.144  11.037   9.507  0.00  0.00     0.087 H 
ATOM     11  H3  SRO d          15.226  10.439   7.108  0.00  0.00     0.087 H 
ATOM     12  H4  SRO d          13.822   8.967   5.077  0.00  0.00     0.165 HD
ATOM     13  H5  SRO d          11.676   7.522   4.984  0.00  0.00     0.112 H 
ATOM     14  H6  SRO d          11.556   8.725   9.974  0.00  0.00     0.089 H 
ENDROOT
BRANCH   7  15
ATOM     15  CB  SRO d          10.325   7.307   7.610  0.00  0.00    -0.017 C 
ATOM     16  H7  SRO d           9.463   7.858   7.206  0.00  0.00     0.042 H 
ATOM     17  H8  SRO d          10.313   7.361   8.709  0.00  0.00     0.042 H 
BRANCH  15  18
ATOM     18  CA  SRO d          10.152   5.880   7.237  0.00  0.00     0.083 C 
ATOM     19  H9  SRO d           9.989   5.839   6.150  0.00  0.00     0.075 H 
ATOM     20  H10 SRO d           9.258   5.506   7.757  0.00  0.00     0.075 H 
BRANCH  18  21
ATOM     21  NZ  SRO d          11.234   4.996   7.546  0.00  0.00    -0.079 N 
ATOM     22  H11 SRO d          11.000   4.062   7.246  0.00  0.00     0.274 HD
ATOM     23  H12 SRO d          11.396   4.998   8.540  0.00  0.00     0.274 HD
ATOM     24  H13 SRO d          12.067   5.303   7.068  0.00  0.00     0.274 HD
ENDBRANCH  18  21
ENDBRANCH  15  18
ENDBRANCH   7  15
BRANCH   1  25
ATOM     25  OH  SRO d          13.292  10.237  11.259  0.00  0.00    -0.361 OA
ATOM     26  H1  SRO d          12.530   9.827  11.651  0.00  0.00     0.217 HD
ENDBRANCH   1  25
TORSDOF 4
ENDMDL
