MODEL 1
REMARK VINA RESULT:      -7.3      0.000      0.000
REMARK  7 active torsions:
REMARK  status: ('A' for Active; 'I' for Inactive)
REMARK    1  A    between atoms: CAB_1  and  N3_2 
REMARK    2  A    between atoms: N1_5  and  CAA_6 
REMARK    3  A    between atoms: N7_13  and  CAI_14 
REMARK    4  A    between atoms: CAI_14  and  CAO_15 
REMARK    5  A    between atoms: CAO_15  and  OAF_16 
REMARK    6  A    between atoms: CAO_15  and  CAH_17 
REMARK    7  A    between atoms: CAH_17  and  OAE_18 
ROOT
ATOM      1  N3  X0T d          35.028  45.766  22.109  0.00  0.00    -0.286 N 
ATOM      2  C2  X0T d          36.124  44.910  22.172  0.00  0.00     0.332 A 
ATOM      3  O2  X0T d          37.249  45.414  22.150  0.00  0.00    -0.246 OA
ATOM      4  N1  X0T d          35.940  43.499  22.246  0.00  0.00    -0.269 N 
ATOM      5  C6  X0T d          34.640  42.963  22.263  0.00  0.00     0.282 A 
ATOM      6  O6  X0T d          34.458  41.737  22.334  0.00  0.00    -0.265 OA
ATOM      7  C5  X0T d          33.551  43.844  22.200  0.00  0.00     0.151 A 
ATOM      8  C4  X0T d          33.734  45.224  22.125  0.00  0.00     0.167 A 
ATOM      9  N9  X0T d          32.527  45.804  22.089  0.00  0.00    -0.223 NA
ATOM     10  C8  X0T d          31.602  44.836  22.150  0.00  0.00     0.069 A 
ATOM     11  N7  X0T d          32.234  43.665  22.213  0.00  0.00    -0.331 N 
ATOM     12  H7  X0T d          30.523  44.981  22.147  0.00  0.00     0.143 H 
ENDROOT
BRANCH  11  13
ATOM     13  CAI X0T d          31.611  42.336  22.287  0.00  0.00     0.027 C 
ATOM     14  H8  X0T d          32.110  41.768  23.086  0.00  0.00     0.069 H 
ATOM     15  H9  X0T d          31.769  41.830  21.323  0.00  0.00     0.069 H 
BRANCH  13  16
ATOM     16  CAO X0T d          30.130  42.349  22.574  0.00  0.00     0.071 C 
ATOM     17  H10 X0T d          29.652  43.214  22.092  0.00  0.00     0.088 H 
BRANCH  16  18
ATOM     18  OAF X0T d          29.923  42.403  23.986  0.00  0.00    -0.392 OA
ATOM     19  H11 X0T d          28.991  42.411  24.168  0.00  0.00     0.210 HD
ENDBRANCH  16  18
BRANCH  16  20
ATOM     20  CAH X0T d          29.554  41.048  22.023  0.00  0.00     0.042 C 
ATOM     21  H12 X0T d          29.613  40.259  22.786  0.00  0.00     0.077 H 
ATOM     22  H13 X0T d          30.116  40.738  21.129  0.00  0.00     0.077 H 
BRANCH  20  23
ATOM     23  OAE X0T d          28.204  41.289  21.684  0.00  0.00    -0.398 OA
ATOM     24  H14 X0T d          27.819  40.493  21.337  0.00  0.00     0.209 HD
ENDBRANCH  20  23
ENDBRANCH  16  20
ENDBRANCH  13  16
ENDBRANCH  11  13
BRANCH   4  25
ATOM     25  CAA X0T d          37.118  42.601  22.330  0.00  0.00    -0.007 C 
ATOM     26  H4  X0T d          38.039  43.201  22.302  0.00  0.00     0.057 H 
ATOM     27  H5  X0T d          37.109  41.903  21.479  0.00  0.00     0.057 H 
ATOM     28  H6  X0T d          37.079  42.032  23.271  0.00  0.00     0.057 H 
ENDBRANCH   4  25
BRANCH   1  29
ATOM     29  CAB X0T d          35.220  47.251  22.015  0.00  0.00    -0.008 C 
ATOM     30  H1  X0T d          36.294  47.483  22.016  0.00  0.00     0.057 H 
ATOM     31  H2  X0T d          34.739  47.738  22.877  0.00  0.00     0.057 H 
ATOM     32  H3  X0T d          34.765  47.622  21.084  0.00  0.00     0.057 H 
ENDBRANCH   1  29
TORSDOF 7
ENDMDL
