REMARK  7 active torsions:
REMARK  status: ('A' for Active; 'I' for Inactive)
REMARK    1  A    between atoms: CAB_1  and  N3_2 
REMARK    2  A    between atoms: N1_5  and  CAA_6 
REMARK    3  A    between atoms: N7_13  and  CAI_14 
REMARK    4  A    between atoms: CAI_14  and  CAO_15 
REMARK    5  A    between atoms: CAO_15  and  OAF_16 
REMARK    6  A    between atoms: CAO_15  and  CAH_17 
REMARK    7  A    between atoms: CAH_17  and  OAE_18 
ROOT
ATOM      1  N3  X0T d          35.280  45.769  22.235  0.00  0.00    -0.286 N 
ATOM      2  C2  X0T d          36.286  44.809  22.174  0.00  0.00     0.332 A 
ATOM      3  O2  X0T d          37.451  45.202  22.071  0.00  0.00    -0.246 OA
ATOM      4  N1  X0T d          35.969  43.420  22.216  0.00  0.00    -0.269 N 
ATOM      5  C6  X0T d          34.628  43.012  22.328  0.00  0.00     0.282 A 
ATOM      6  O6  X0T d          34.330  41.808  22.374  0.00  0.00    -0.265 OA
ATOM      7  C5  X0T d          33.631  43.997  22.390  0.00  0.00     0.151 A 
ATOM      8  C4  X0T d          33.944  45.354  22.346  0.00  0.00     0.167 A 
ATOM      9  N9  X0T d          32.803  46.049  22.435  0.00  0.00    -0.223 NA
ATOM     10  C8  X0T d          31.794  45.174  22.543  0.00  0.00     0.069 A 
ATOM     11  N7  X0T d          32.308  43.946  22.512  0.00  0.00    -0.331 N 
ATOM     12  H7  X0T d          30.738  45.423  22.639  0.00  0.00     0.143 H 
ENDROOT
BRANCH  11  13
ATOM     13  CAI X0T d          31.564  42.681  22.595  0.00  0.00     0.027 C 
ATOM     14  H8  X0T d          31.902  42.143  23.493  0.00  0.00     0.069 H 
ATOM     15  H9  X0T d          31.799  42.086  21.700  0.00  0.00     0.069 H 
BRANCH  13  16
ATOM     16  CAO X0T d          30.065  42.836  22.676  0.00  0.00     0.071 C 
ATOM     17  H10 X0T d          29.699  43.469  21.854  0.00  0.00     0.088 H 
BRANCH  16  18
ATOM     18  OAF X0T d          29.718  43.420  23.932  0.00  0.00    -0.392 OA
ATOM     19  H11 X0T d          28.775  43.518  23.984  0.00  0.00     0.210 HD
ENDBRANCH  16  18
BRANCH  16  20
ATOM     20  CAH X0T d          29.463  41.438  22.579  0.00  0.00     0.042 C 
ATOM     21  H12 X0T d          29.425  40.976  23.576  0.00  0.00     0.077 H 
ATOM     22  H13 X0T d          30.071  40.813  21.908  0.00  0.00     0.077 H 
BRANCH  20  23
ATOM     23  OAE X0T d          28.156  41.571  22.060  0.00  0.00    -0.398 OA
ATOM     24  H14 X0T d          27.756  40.712  21.989  0.00  0.00     0.209 HD
ENDBRANCH  20  23
ENDBRANCH  16  20
ENDBRANCH  13  16
ENDBRANCH  11  13
BRANCH   4  25
ATOM     25  CAA X0T d          37.054  42.409  22.167  0.00  0.00    -0.007 C 
ATOM     26  H4  X0T d          38.025  42.918  22.079  0.00  0.00     0.057 H 
ATOM     27  H5  X0T d          36.904  41.752  21.297  0.00  0.00     0.057 H 
ATOM     28  H6  X0T d          37.037  41.808  23.088  0.00  0.00     0.057 H 
ENDBRANCH   4  25
BRANCH   1  29
ATOM     29  CAB X0T d          35.611  47.231  22.175  0.00  0.00    -0.008 C 
ATOM     30  H1  X0T d          36.700  47.357  22.090  0.00  0.00     0.057 H 
ATOM     31  H2  X0T d          35.255  47.725  23.091  0.00  0.00     0.057 H 
ATOM     32  H3  X0T d          35.120  47.683  21.300  0.00  0.00     0.057 H 
ENDBRANCH   1  29
TORSDOF 7
