REMARK  3 active torsions:
REMARK  status: ('A' for Active; 'I' for Inactive)
REMARK    1  A    between atoms: CAU_21  and  OAA_1 
REMARK    2  A    between atoms: CAQ_17  and  CAP_16 
REMARK    3  A    between atoms: CAR_18  and  CAU_21 
ROOT
ATOM      1  CAK MOL d          58.267  11.677  51.854  0.00  0.00    -0.036 C 
ATOM      2  CAL MOL d          56.710  10.216  52.966  0.00  0.00    -0.036 C 
ATOM      3  CAM MOL d          57.706  11.078  50.568  0.00  0.00     0.084 C 
ATOM      4  CAN MOL d          55.958   9.854  51.687  0.00  0.00     0.084 C 
ATOM      5  CAO MOL d          55.575  12.165  51.045  0.00  0.00     0.116 C 
ATOM      6  CAS MOL d          57.138  11.677  52.878  0.00  0.00    -0.015 C 
ATOM      7  NAT MOL d          56.247  10.896  50.686  0.00  0.00    -0.068 N 
ATOM      8  CAU MOL d          55.984  12.584  52.456  0.00  0.00     0.113 C 
ATOM      9  H11 MOL d          58.611  12.706  51.672  0.00  0.00     0.036 H 
ATOM     10  H12 MOL d          59.107  11.068  52.219  0.00  0.00     0.036 H 
ATOM     11  H13 MOL d          57.598   9.575  53.069  0.00  0.00     0.036 H 
ATOM     12  H14 MOL d          56.052  10.074  53.836  0.00  0.00     0.036 H 
ATOM     13  H15 MOL d          58.180  10.103  50.384  0.00  0.00     0.076 H 
ATOM     14  H16 MOL d          57.921  11.755  49.728  0.00  0.00     0.076 H 
ATOM     15  H17 MOL d          54.877   9.816  51.886  0.00  0.00     0.076 H 
ATOM     16  H18 MOL d          56.297   8.875  51.317  0.00  0.00     0.076 H 
ATOM     17  H19 MOL d          54.485  12.025  51.007  0.00  0.00     0.081 H 
ATOM     18  H20 MOL d          55.869  12.949  50.331  0.00  0.00     0.081 H 
ATOM     19  H21 MOL d          57.514  12.020  53.853  0.00  0.00     0.045 H 
ATOM     20  H22 MOL d          55.890  10.592  49.794  0.00  0.00     0.280 HD
ENDROOT
BRANCH   8  21
ATOM     21  OAA MOL d          54.885  12.329  53.337  0.00  0.00    -0.383 OA
ATOM     22  H1  MOL d          55.123  12.585  54.221  0.00  0.00     0.211 HD
ENDBRANCH   8  21
BRANCH   8  23
ATOM     23  CAR MOL d          56.299  14.052  52.585  0.00  0.00    -0.022 A 
ATOM     24  CAI MOL d          56.025  14.965  51.570  0.00  0.00    -0.073 A 
ATOM     25  CAG MOL d          56.304  16.320  51.722  0.00  0.00    -0.072 A 
ATOM     26  H9  MOL d          55.586  14.614  50.643  0.00  0.00     0.084 H 
ATOM     27  CAQ MOL d          56.870  16.853  52.877  0.00  0.00    -0.026 A 
ATOM     28  H7  MOL d          56.070  16.991  50.904  0.00  0.00     0.084 H 
ATOM     29  CAH MOL d          57.127  15.937  53.896  0.00  0.00    -0.072 A 
ATOM     30  CAJ MOL d          56.835  14.577  53.763  0.00  0.00    -0.073 A 
ATOM     31  H8  MOL d          57.567  16.291  54.821  0.00  0.00     0.084 H 
ATOM     32  H10 MOL d          57.030  13.912  54.596  0.00  0.00     0.084 H 
BRANCH  27  33
ATOM     33  CAP MOL d          57.149  18.210  52.994  0.00  0.00    -0.026 A 
ATOM     34  CAE MOL d          57.693  18.758  54.155  0.00  0.00    -0.072 A 
ATOM     35  CAC MOL d          57.963  20.118  54.306  0.00  0.00    -0.082 A 
ATOM     36  H5  MOL d          57.917  18.094  54.982  0.00  0.00     0.084 H 
ATOM     37  CAB MOL d          57.711  21.005  53.258  0.00  0.00    -0.083 A 
ATOM     38  H3  MOL d          58.370  20.487  55.240  0.00  0.00     0.083 H 
ATOM     39  CAD MOL d          57.198  20.467  52.080  0.00  0.00    -0.082 A 
ATOM     40  H2  MOL d          57.906  22.067  53.357  0.00  0.00     0.083 H 
ATOM     41  CAF MOL d          56.911  19.106  51.957  0.00  0.00    -0.072 A 
ATOM     42  H4  MOL d          57.017  21.123  51.236  0.00  0.00     0.083 H 
ATOM     43  H6  MOL d          56.491  18.738  51.028  0.00  0.00     0.084 H 
ENDBRANCH  27  33
ENDBRANCH   8  23
TORSDOF 3
