MODEL 1
REMARK VINA RESULT:     -10.5      0.000      0.000
REMARK  3 active torsions:
REMARK  status: ('A' for Active; 'I' for Inactive)
REMARK    1  A    between atoms: CAU_21  and  OAA_1 
REMARK    2  A    between atoms: CAQ_17  and  CAP_16 
REMARK    3  A    between atoms: CAR_18  and  CAU_21 
ROOT
ATOM      1  CAK MOL d          58.091  11.862  51.825  0.00  0.00    -0.036 C 
ATOM      2  CAL MOL d          56.661  10.390  53.084  0.00  0.00    -0.036 C 
ATOM      3  CAM MOL d          57.387  11.283  50.602  0.00  0.00     0.084 C 
ATOM      4  CAN MOL d          55.770  10.048  51.892  0.00  0.00     0.084 C 
ATOM      5  CAO MOL d          55.327  12.369  51.328  0.00  0.00     0.116 C 
ATOM      6  CAS MOL d          57.083  11.851  52.969  0.00  0.00    -0.015 C 
ATOM      7  NAT MOL d          55.950  11.103  50.879  0.00  0.00    -0.068 N 
ATOM      8  CAU MOL d          55.893  12.767  52.690  0.00  0.00     0.113 C 
ATOM      9  H11 MOL d          58.417  12.893  51.620  0.00  0.00     0.036 H 
ATOM     10  H12 MOL d          58.963  11.246  52.086  0.00  0.00     0.036 H 
ATOM     11  H13 MOL d          57.552   9.745  53.078  0.00  0.00     0.036 H 
ATOM     12  H14 MOL d          56.104  10.238  54.020  0.00  0.00     0.036 H 
ATOM     13  H15 MOL d          57.834  10.309  50.353  0.00  0.00     0.076 H 
ATOM     14  H16 MOL d          57.510  11.971  49.752  0.00  0.00     0.076 H 
ATOM     15  H17 MOL d          54.717  10.010  52.210  0.00  0.00     0.076 H 
ATOM     16  H18 MOL d          56.061   9.074  51.473  0.00  0.00     0.076 H 
ATOM     17  H19 MOL d          54.239  12.232  51.410  0.00  0.00     0.081 H 
ATOM     18  H20 MOL d          55.543  13.162  50.597  0.00  0.00     0.081 H 
ATOM     19  H21 MOL d          57.567  12.179  53.900  0.00  0.00     0.045 H 
ATOM     20  H22 MOL d          55.494  10.813  50.028  0.00  0.00     0.280 HD
ENDROOT
BRANCH   8  21
ATOM     21  OAA MOL d          54.898  12.503  53.685  0.00  0.00    -0.383 OA
ATOM     22  H1  MOL d          54.099  12.969  53.465  0.00  0.00     0.211 HD
ENDBRANCH   8  21
BRANCH   8  23
ATOM     23  CAR MOL d          56.226  14.232  52.803  0.00  0.00    -0.022 A 
ATOM     24  CAI MOL d          56.928  14.755  53.887  0.00  0.00    -0.073 A 
ATOM     25  CAG MOL d          57.244  16.109  53.957  0.00  0.00    -0.072 A 
ATOM     26  H9  MOL d          57.234  14.096  54.691  0.00  0.00     0.084 H 
ATOM     27  CAQ MOL d          56.887  17.024  52.970  0.00  0.00    -0.026 A 
ATOM     28  H7  MOL d          57.794  16.467  54.819  0.00  0.00     0.084 H 
ATOM     29  CAH MOL d          56.199  16.492  51.881  0.00  0.00    -0.072 A 
ATOM     30  CAJ MOL d          55.891  15.132  51.789  0.00  0.00    -0.073 A 
ATOM     31  H8  MOL d          55.894  17.154  51.079  0.00  0.00     0.084 H 
ATOM     32  H10 MOL d          55.378  14.766  50.908  0.00  0.00     0.084 H 
BRANCH  27  33
ATOM     33  CAP MOL d          57.207  18.373  53.075  0.00  0.00    -0.026 A 
ATOM     34  CAE MOL d          57.736  18.921  54.243  0.00  0.00    -0.072 A 
ATOM     35  CAC MOL d          58.046  20.274  54.382  0.00  0.00    -0.082 A 
ATOM     36  H5  MOL d          57.915  18.263  55.086  0.00  0.00     0.084 H 
ATOM     37  CAB MOL d          57.852  21.152  53.315  0.00  0.00    -0.083 A 
ATOM     38  H3  MOL d          58.438  20.644  55.322  0.00  0.00     0.083 H 
ATOM     39  CAD MOL d          57.354  20.613  52.131  0.00  0.00    -0.082 A 
ATOM     40  H2  MOL d          58.078  22.209  53.404  0.00  0.00     0.083 H 
ATOM     41  CAF MOL d          57.027  19.260  52.019  0.00  0.00    -0.072 A 
ATOM     42  H4  MOL d          57.218  21.261  51.273  0.00  0.00     0.083 H 
ATOM     43  H6  MOL d          56.621  18.891  51.084  0.00  0.00     0.084 H 
ENDBRANCH  27  33
ENDBRANCH   8  23
TORSDOF 3
ENDMDL
MODEL 2
REMARK VINA RESULT:      -9.7      1.251      2.148
REMARK  3 active torsions:
REMARK  status: ('A' for Active; 'I' for Inactive)
REMARK    1  A    between atoms: CAU_21  and  OAA_1 
REMARK    2  A    between atoms: CAQ_17  and  CAP_16 
REMARK    3  A    between atoms: CAR_18  and  CAU_21 
ROOT
ATOM      1  CAK MOL d          54.401  12.197  53.362  0.00  0.00    -0.036 C 
ATOM      2  CAL MOL d          54.500  10.877  51.352  0.00  0.00    -0.036 C 
ATOM      3  CAM MOL d          55.238  11.081  53.979  0.00  0.00     0.084 C 
ATOM      4  CAN MOL d          55.575   9.933  51.888  0.00  0.00     0.084 C 
ATOM      5  CAO MOL d          57.086  11.725  52.523  0.00  0.00     0.116 C 
ATOM      6  CAS MOL d          54.777  12.278  51.888  0.00  0.00    -0.015 C 
ATOM      7  NAT MOL d          56.246  10.608  53.012  0.00  0.00    -0.068 N 
ATOM      8  CAU MOL d          56.236  12.684  51.692  0.00  0.00     0.113 C 
ATOM      9  H11 MOL d          54.621  13.153  53.860  0.00  0.00     0.036 H 
ATOM     10  H12 MOL d          53.330  11.968  53.466  0.00  0.00     0.036 H 
ATOM     11  H13 MOL d          53.509  10.540  51.689  0.00  0.00     0.036 H 
ATOM     12  H14 MOL d          54.530  10.887  50.253  0.00  0.00     0.036 H 
ATOM     13  H15 MOL d          54.580  10.244  54.256  0.00  0.00     0.076 H 
ATOM     14  H16 MOL d          55.746  11.462  54.877  0.00  0.00     0.076 H 
ATOM     15  H17 MOL d          56.305   9.709  51.096  0.00  0.00     0.076 H 
ATOM     16  H18 MOL d          55.113   8.997  52.235  0.00  0.00     0.076 H 
ATOM     17  H19 MOL d          57.900  11.325  51.901  0.00  0.00     0.081 H 
ATOM     18  H20 MOL d          57.512  12.265  53.382  0.00  0.00     0.081 H 
ATOM     19  H21 MOL d          54.138  13.011  51.375  0.00  0.00     0.045 H 
ATOM     20  H22 MOL d          56.845   9.943  53.475  0.00  0.00     0.280 HD
ENDROOT
BRANCH   8  21
ATOM     21  OAA MOL d          56.561  12.491  50.311  0.00  0.00    -0.383 OA
ATOM     22  H1  MOL d          55.994  13.033  49.775  0.00  0.00     0.211 HD
ENDBRANCH   8  21
BRANCH   8  23
ATOM     23  CAR MOL d          56.497  14.138  51.989  0.00  0.00    -0.022 A 
ATOM     24  CAI MOL d          55.978  15.164  51.203  0.00  0.00    -0.073 A 
ATOM     25  CAG MOL d          56.214  16.501  51.512  0.00  0.00    -0.072 A 
ATOM     26  H9  MOL d          55.379  14.918  50.334  0.00  0.00     0.084 H 
ATOM     27  CAQ MOL d          56.974  16.904  52.606  0.00  0.00    -0.026 A 
ATOM     28  H7  MOL d          55.786  17.263  50.871  0.00  0.00     0.084 H 
ATOM     29  CAH MOL d          57.477  15.873  53.399  0.00  0.00    -0.072 A 
ATOM     30  CAJ MOL d          57.233  14.528  53.110  0.00  0.00    -0.073 A 
ATOM     31  H8  MOL d          58.077  16.123  54.266  0.00  0.00     0.084 H 
ATOM     32  H10 MOL d          57.625  13.767  53.774  0.00  0.00     0.084 H 
BRANCH  27  33
ATOM     33  CAP MOL d          57.203  18.247  52.881  0.00  0.00    -0.026 A 
ATOM     34  CAE MOL d          57.532  18.697  54.159  0.00  0.00    -0.072 A 
ATOM     35  CAC MOL d          57.746  20.041  54.466  0.00  0.00    -0.082 A 
ATOM     36  H5  MOL d          57.626  17.967  54.954  0.00  0.00     0.084 H 
ATOM     37  CAB MOL d          57.658  21.013  53.468  0.00  0.00    -0.083 A 
ATOM     38  H3  MOL d          57.982  20.331  55.483  0.00  0.00     0.083 H 
ATOM     39  CAD MOL d          57.362  20.574  52.179  0.00  0.00    -0.082 A 
ATOM     40  H2  MOL d          57.812  22.063  53.686  0.00  0.00     0.083 H 
ATOM     41  CAF MOL d          57.126  19.227  51.897  0.00  0.00    -0.072 A 
ATOM     42  H4  MOL d          57.313  21.299  51.374  0.00  0.00     0.083 H 
ATOM     43  H6  MOL d          56.877  18.937  50.883  0.00  0.00     0.084 H 
ENDBRANCH  27  33
ENDBRANCH   8  23
TORSDOF 3
ENDMDL
MODEL 3
REMARK VINA RESULT:      -8.4      1.161      1.760
REMARK  3 active torsions:
REMARK  status: ('A' for Active; 'I' for Inactive)
REMARK    1  A    between atoms: CAU_21  and  OAA_1 
REMARK    2  A    between atoms: CAQ_17  and  CAP_16 
REMARK    3  A    between atoms: CAR_18  and  CAU_21 
ROOT
ATOM      1  CAK MOL d          56.803  10.830  53.632  0.00  0.00    -0.036 C 
ATOM      2  CAL MOL d          54.833   9.886  52.619  0.00  0.00    -0.036 C 
ATOM      3  CAM MOL d          57.567   9.997  52.607  0.00  0.00     0.084 C 
ATOM      4  CAN MOL d          55.585   9.306  51.423  0.00  0.00     0.084 C 
ATOM      5  CAO MOL d          56.649  11.411  50.843  0.00  0.00     0.116 C 
ATOM      6  CAS MOL d          55.475  11.218  52.994  0.00  0.00    -0.015 C 
ATOM      7  NAT MOL d          56.867  10.023  51.308  0.00  0.00    -0.068 N 
ATOM      8  CAU MOL d          55.668  12.119  51.776  0.00  0.00     0.113 C 
ATOM      9  H11 MOL d          57.377  11.733  53.888  0.00  0.00     0.036 H 
ATOM     10  H12 MOL d          56.625  10.238  54.542  0.00  0.00     0.036 H 
ATOM     11  H13 MOL d          54.896   9.192  53.470  0.00  0.00     0.036 H 
ATOM     12  H14 MOL d          53.778  10.045  52.353  0.00  0.00     0.036 H 
ATOM     13  H15 MOL d          57.637   8.959  52.961  0.00  0.00     0.076 H 
ATOM     14  H16 MOL d          58.578  10.412  52.483  0.00  0.00     0.076 H 
ATOM     15  H17 MOL d          54.995   9.446  50.506  0.00  0.00     0.076 H 
ATOM     16  H18 MOL d          55.768   8.233  51.581  0.00  0.00     0.076 H 
ATOM     17  H19 MOL d          56.237  11.394  49.824  0.00  0.00     0.081 H 
ATOM     18  H20 MOL d          57.608  11.951  50.842  0.00  0.00     0.081 H 
ATOM     19  H21 MOL d          54.846  11.748  53.724  0.00  0.00     0.045 H 
ATOM     20  H22 MOL d          57.440   9.549  50.628  0.00  0.00     0.280 HD
ENDROOT
BRANCH   8  21
ATOM     21  OAA MOL d          54.407  12.223  51.106  0.00  0.00    -0.383 OA
ATOM     22  H1  MOL d          54.344  13.072  50.682  0.00  0.00     0.211 HD
ENDBRANCH   8  21
BRANCH   8  23
ATOM     23  CAR MOL d          56.077  13.525  52.131  0.00  0.00    -0.022 A 
ATOM     24  CAI MOL d          56.523  14.435  51.176  0.00  0.00    -0.073 A 
ATOM     25  CAG MOL d          56.874  15.736  51.525  0.00  0.00    -0.072 A 
ATOM     26  H9  MOL d          56.600  14.125  50.140  0.00  0.00     0.084 H 
ATOM     27  CAQ MOL d          56.808  16.215  52.831  0.00  0.00    -0.026 A 
ATOM     28  H7  MOL d          57.213  16.407  50.745  0.00  0.00     0.084 H 
ATOM     29  CAH MOL d          56.345  15.304  53.780  0.00  0.00    -0.072 A 
ATOM     30  CAJ MOL d          55.973  14.001  53.440  0.00  0.00    -0.073 A 
ATOM     31  H8  MOL d          56.271  15.618  54.815  0.00  0.00     0.084 H 
ATOM     32  H10 MOL d          55.595  13.342  54.212  0.00  0.00     0.084 H 
BRANCH  27  33
ATOM     33  CAP MOL d          57.178  17.516  53.151  0.00  0.00    -0.026 A 
ATOM     34  CAE MOL d          58.268  17.797  53.974  0.00  0.00    -0.072 A 
ATOM     35  CAC MOL d          58.647  19.092  54.327  0.00  0.00    -0.082 A 
ATOM     36  H5  MOL d          58.850  16.968  54.359  0.00  0.00     0.084 H 
ATOM     37  CAB MOL d          57.939  20.190  53.835  0.00  0.00    -0.083 A 
ATOM     38  H3  MOL d          59.494  19.246  54.985  0.00  0.00     0.083 H 
ATOM     39  CAD MOL d          56.867  19.926  52.985  0.00  0.00    -0.082 A 
ATOM     40  H2  MOL d          58.212  21.205  54.103  0.00  0.00     0.083 H 
ATOM     41  CAF MOL d          56.488  18.622  52.663  0.00  0.00    -0.072 A 
ATOM     42  H4  MOL d          56.313  20.757  52.562  0.00  0.00     0.083 H 
ATOM     43  H6  MOL d          55.633  18.466  52.016  0.00  0.00     0.084 H 
ENDBRANCH  27  33
ENDBRANCH   8  23
TORSDOF 3
ENDMDL
MODEL 4
REMARK VINA RESULT:      -7.6      2.580      7.380
REMARK  3 active torsions:
REMARK  status: ('A' for Active; 'I' for Inactive)
REMARK    1  A    between atoms: CAU_21  and  OAA_1 
REMARK    2  A    between atoms: CAQ_17  and  CAP_16 
REMARK    3  A    between atoms: CAR_18  and  CAU_21 
ROOT
ATOM      1  CAK MOL d          58.999  18.160  52.491  0.00  0.00    -0.036 C 
ATOM      2  CAL MOL d          57.488  20.007  52.174  0.00  0.00    -0.036 C 
ATOM      3  CAM MOL d          59.275  18.792  53.852  0.00  0.00     0.084 C 
ATOM      4  CAN MOL d          57.544  20.453  53.634  0.00  0.00     0.084 C 
ATOM      5  CAO MOL d          56.989  18.258  54.513  0.00  0.00     0.116 C 
ATOM      6  CAS MOL d          57.554  18.484  52.132  0.00  0.00    -0.015 C 
ATOM      7  NAT MOL d          58.024  19.313  54.434  0.00  0.00    -0.068 N 
ATOM      8  CAU MOL d          56.566  17.844  53.105  0.00  0.00     0.113 C 
ATOM      9  H11 MOL d          59.139  17.070  52.546  0.00  0.00     0.036 H 
ATOM     10  H12 MOL d          59.679  18.580  51.735  0.00  0.00     0.036 H 
ATOM     11  H13 MOL d          58.341  20.430  51.623  0.00  0.00     0.036 H 
ATOM     12  H14 MOL d          56.548  20.350  51.717  0.00  0.00     0.036 H 
ATOM     13  H15 MOL d          59.991  19.617  53.731  0.00  0.00     0.076 H 
ATOM     14  H16 MOL d          59.701  18.033  54.525  0.00  0.00     0.076 H 
ATOM     15  H17 MOL d          56.541  20.752  53.973  0.00  0.00     0.076 H 
ATOM     16  H18 MOL d          58.235  21.302  53.740  0.00  0.00     0.076 H 
ATOM     17  H19 MOL d          56.115  18.643  55.058  0.00  0.00     0.081 H 
ATOM     18  H20 MOL d          57.397  17.385  55.044  0.00  0.00     0.081 H 
ATOM     19  H21 MOL d          57.328  18.124  51.117  0.00  0.00     0.045 H 
ATOM     20  H22 MOL d          58.217  19.635  55.369  0.00  0.00     0.280 HD
ENDROOT
BRANCH   8  21
ATOM     21  OAA MOL d          55.273  18.400  52.841  0.00  0.00    -0.383 OA
ATOM     22  H1  MOL d          55.370  19.199  52.336  0.00  0.00     0.211 HD
ENDBRANCH   8  21
BRANCH   8  23
ATOM     23  CAR MOL d          56.431  16.353  52.926  0.00  0.00    -0.022 A 
ATOM     24  CAI MOL d          56.765  15.449  53.931  0.00  0.00    -0.073 A 
ATOM     25  CAG MOL d          56.609  14.078  53.750  0.00  0.00    -0.072 A 
ATOM     26  H9  MOL d          57.154  15.820  54.872  0.00  0.00     0.084 H 
ATOM     27  CAQ MOL d          56.121  13.519  52.572  0.00  0.00    -0.026 A 
ATOM     28  H7  MOL d          56.881  13.415  54.563  0.00  0.00     0.084 H 
ATOM     29  CAH MOL d          55.773  14.430  51.576  0.00  0.00    -0.072 A 
ATOM     30  CAJ MOL d          55.907  15.809  51.751  0.00  0.00    -0.073 A 
ATOM     31  H8  MOL d          55.385  14.056  50.635  0.00  0.00     0.084 H 
ATOM     32  H10 MOL d          55.596  16.475  50.954  0.00  0.00     0.084 H 
BRANCH  27  33
ATOM     33  CAP MOL d          55.989  12.143  52.417  0.00  0.00    -0.026 A 
ATOM     34  CAE MOL d          54.978  11.578  51.641  0.00  0.00    -0.072 A 
ATOM     35  CAC MOL d          54.810  10.202  51.486  0.00  0.00    -0.082 A 
ATOM     36  H5  MOL d          54.286  12.241  51.134  0.00  0.00     0.084 H 
ATOM     37  CAB MOL d          55.692   9.313  52.103  0.00  0.00    -0.083 A 
ATOM     38  H3  MOL d          53.994   9.822  50.883  0.00  0.00     0.083 H 
ATOM     39  CAD MOL d          56.727   9.864  52.855  0.00  0.00    -0.082 A 
ATOM     40  H2  MOL d          55.575   8.240  52.002  0.00  0.00     0.083 H 
ATOM     41  CAF MOL d          56.863  11.244  53.019  0.00  0.00    -0.072 A 
ATOM     42  H4  MOL d          57.446   9.203  53.325  0.00  0.00     0.083 H 
ATOM     43  H6  MOL d          57.671  11.625  53.633  0.00  0.00     0.084 H 
ENDBRANCH  27  33
ENDBRANCH   8  23
TORSDOF 3
ENDMDL
MODEL 5
REMARK VINA RESULT:      -7.5      2.592      7.390
REMARK  3 active torsions:
REMARK  status: ('A' for Active; 'I' for Inactive)
REMARK    1  A    between atoms: CAU_21  and  OAA_1 
REMARK    2  A    between atoms: CAQ_17  and  CAP_16 
REMARK    3  A    between atoms: CAR_18  and  CAU_21 
ROOT
ATOM      1  CAK MOL d          58.914  18.186  52.468  0.00  0.00    -0.036 C 
ATOM      2  CAL MOL d          57.438  20.066  52.184  0.00  0.00    -0.036 C 
ATOM      3  CAM MOL d          59.223  18.804  53.829  0.00  0.00     0.084 C 
ATOM      4  CAN MOL d          57.523  20.502  53.645  0.00  0.00     0.084 C 
ATOM      5  CAO MOL d          56.935  18.314  54.519  0.00  0.00     0.116 C 
ATOM      6  CAS MOL d          57.471  18.542  52.132  0.00  0.00    -0.015 C 
ATOM      7  NAT MOL d          57.991  19.347  54.432  0.00  0.00    -0.068 N 
ATOM      8  CAU MOL d          56.484  17.917  53.115  0.00  0.00     0.113 C 
ATOM      9  H11 MOL d          59.031  17.093  52.515  0.00  0.00     0.036 H 
ATOM     10  H12 MOL d          59.591  18.596  51.705  0.00  0.00     0.036 H 
ATOM     11  H13 MOL d          58.291  20.475  51.623  0.00  0.00     0.036 H 
ATOM     12  H14 MOL d          56.499  20.432  51.742  0.00  0.00     0.036 H 
ATOM     13  H15 MOL d          59.954  19.615  53.702  0.00  0.00     0.076 H 
ATOM     14  H16 MOL d          59.642  18.032  54.491  0.00  0.00     0.076 H 
ATOM     15  H17 MOL d          56.532  20.820  54.000  0.00  0.00     0.076 H 
ATOM     16  H18 MOL d          58.234  21.336  53.746  0.00  0.00     0.076 H 
ATOM     17  H19 MOL d          56.077  18.714  55.079  0.00  0.00     0.081 H 
ATOM     18  H20 MOL d          57.332  17.429  55.040  0.00  0.00     0.081 H 
ATOM     19  H21 MOL d          57.223  18.194  51.118  0.00  0.00     0.045 H 
ATOM     20  H22 MOL d          58.204  19.660  55.366  0.00  0.00     0.280 HD
ENDROOT
BRANCH   8  21
ATOM     21  OAA MOL d          55.199  18.502  52.874  0.00  0.00    -0.383 OA
ATOM     22  H1  MOL d          54.792  18.722  53.704  0.00  0.00     0.211 HD
ENDBRANCH   8  21
BRANCH   8  23
ATOM     23  CAR MOL d          56.315  16.431  52.930  0.00  0.00    -0.022 A 
ATOM     24  CAI MOL d          55.887  15.874  51.728  0.00  0.00    -0.073 A 
ATOM     25  CAG MOL d          55.761  14.497  51.574  0.00  0.00    -0.072 A 
ATOM     26  H9  MOL d          55.647  16.525  50.895  0.00  0.00     0.084 H 
ATOM     27  CAQ MOL d          56.045  13.591  52.592  0.00  0.00    -0.026 A 
ATOM     28  H7  MOL d          55.426  14.111  50.618  0.00  0.00     0.084 H 
ATOM     29  CAH MOL d          56.488  14.153  53.788  0.00  0.00    -0.072 A 
ATOM     30  CAJ MOL d          56.637  15.533  53.950  0.00  0.00    -0.073 A 
ATOM     31  H8  MOL d          56.726  13.499  54.619  0.00  0.00     0.084 H 
ATOM     32  H10 MOL d          57.011  15.916  54.891  0.00  0.00     0.084 H 
BRANCH  27  33
ATOM     33  CAP MOL d          55.897  12.220  52.412  0.00  0.00    -0.026 A 
ATOM     34  CAE MOL d          56.767  11.297  52.991  0.00  0.00    -0.072 A 
ATOM     35  CAC MOL d          56.654   9.919  52.810  0.00  0.00    -0.082 A 
ATOM     36  H5  MOL d          57.573  11.670  53.613  0.00  0.00     0.084 H 
ATOM     37  CAB MOL d          55.617   9.396  52.035  0.00  0.00    -0.083 A 
ATOM     38  H3  MOL d          57.372   9.253  53.272  0.00  0.00     0.083 H 
ATOM     39  CAD MOL d          54.721  10.303  51.476  0.00  0.00    -0.082 A 
ATOM     40  H2  MOL d          55.515   8.328  51.874  0.00  0.00     0.083 H 
ATOM     41  CAF MOL d          54.866  11.681  51.649  0.00  0.00    -0.072 A 
ATOM     42  H4  MOL d          53.887   9.930  50.892  0.00  0.00     0.083 H 
ATOM     43  H6  MOL d          54.156  12.349  51.175  0.00  0.00     0.084 H 
ENDBRANCH  27  33
ENDBRANCH   8  23
TORSDOF 3
ENDMDL
