MODEL 1
REMARK VINA RESULT:      -9.8      0.000      0.000
REMARK  8 active torsions:
REMARK  status: ('A' for Active; 'I' for Inactive)
REMARK       I    between atoms: C25_25  and  N1_1 
REMARK    1  A    between atoms: C3_3  and  N5_5 
REMARK       I    between atoms: N5_5  and  C6_6 
REMARK    2  A    between atoms: C6_6  and  C7_7 
REMARK    3  A    between atoms: C24_24  and  N17_17 
REMARK    4  A    between atoms: N20_20  and  C23_23 
REMARK    5  A    between atoms: C20_32  and  C25_25 
REMARK    6  A    between atoms: C29_29  and  C20_32 
REMARK    7  A    between atoms: C20_32  and  O34_35 
REMARK    8  A    between atoms: O34_35  and  C36_34 
ROOT
ATOM      1  N1  MOL d         -41.309 -46.174 -10.079  0.00  0.00    -0.340 N 
ATOM      2  N2  MOL d         -38.843 -47.449 -12.405  0.00  0.00    -0.278 N 
ATOM      3  C3  MOL d         -40.368 -49.060 -12.148  0.00  0.00     0.160 A 
ATOM      4  N4  MOL d         -39.196 -48.783 -12.748  0.00  0.00    -0.156 NA
ATOM      5  C13 MOL d         -39.825 -46.972 -11.614  0.00  0.00     0.057 A 
ATOM      6  C14 MOL d         -40.817 -47.981 -11.414  0.00  0.00     0.033 A 
ATOM      7  C15 MOL d         -41.896 -47.487 -10.501  0.00  0.00     0.027 C 
ATOM      8  C16 MOL d         -40.134 -45.726 -10.857  0.00  0.00     0.038 C 
ATOM      9  C25 MOL d         -41.775 -45.410  -9.078  0.00  0.00     0.254 C 
ATOM     10  O26 MOL d         -41.254 -44.338  -8.775  0.00  0.00    -0.270 OA
ATOM     11  H1  MOL d         -37.998 -46.944 -12.704  0.00  0.00     0.189 HD
ATOM     12  H7  MOL d         -42.850 -47.355 -11.033  0.00  0.00     0.072 H 
ATOM     13  H8  MOL d         -42.044 -48.161  -9.645  0.00  0.00     0.072 H 
ATOM     14  H9  MOL d         -39.302 -45.431 -10.202  0.00  0.00     0.074 H 
ATOM     15  H10 MOL d         -40.385 -44.893 -11.530  0.00  0.00     0.074 H 
ENDROOT
BRANCH   3  16
ATOM     16  N5  MOL d         -40.929 -50.309 -12.305  0.00  0.00    -0.305 N 
ATOM     17  C6  MOL d         -42.223 -50.584 -12.338  0.00  0.00     0.257 C 
ATOM     18  O8  MOL d         -43.105 -49.749 -12.263  0.00  0.00    -0.267 OA
ATOM     19  H2  MOL d         -40.300 -51.080 -12.402  0.00  0.00     0.170 HD
BRANCH  17  20
ATOM     20  C7  MOL d         -42.615 -52.002 -12.497  0.00  0.00     0.032 A 
ATOM     21  C9  MOL d         -43.726 -52.437 -11.791  0.00  0.00    -0.066 A 
ATOM     22  C10 MOL d         -44.166 -53.740 -11.895  0.00  0.00    -0.056 A 
ATOM     23  H3  MOL d         -44.257 -51.743 -11.150  0.00  0.00     0.085 H 
ATOM     24  C24 MOL d         -43.467 -54.605 -12.708  0.00  0.00     0.030 A 
ATOM     25  H4  MOL d         -45.040 -54.077 -11.349  0.00  0.00     0.086 H 
ATOM     26  C11 MOL d         -42.334 -54.165 -13.418  0.00  0.00    -0.056 A 
ATOM     27  C12 MOL d         -41.900 -52.855 -13.324  0.00  0.00    -0.066 A 
ATOM     28  H5  MOL d         -41.795 -54.862 -14.049  0.00  0.00     0.086 H 
ATOM     29  H6  MOL d         -41.033 -52.509 -13.875  0.00  0.00     0.085 H 
BRANCH  24  30
ATOM     30  N17 MOL d         -43.913 -55.933 -12.818  0.00  0.00    -0.378 N 
ATOM     31  C18 MOL d         -44.865 -56.391 -12.105  0.00  0.00     0.018 C 
ATOM     32  C19 MOL d         -44.683 -57.585 -11.522  0.00  0.00     0.098 C 
ATOM     33  H11 MOL d         -45.751 -56.471 -12.751  0.00  0.00     0.066 H 
ATOM     34  H12 MOL d         -45.059 -55.660 -11.306  0.00  0.00     0.066 H 
ATOM     35  N20 MOL d         -43.706 -58.521 -12.017  0.00  0.00    -0.072 N 
ATOM     36  H13 MOL d         -45.654 -58.101 -11.560  0.00  0.00     0.078 H 
ATOM     37  H14 MOL d         -44.416 -57.382 -10.474  0.00  0.00     0.078 H 
ATOM     38  C21 MOL d         -42.653 -57.890 -12.860  0.00  0.00     0.098 C 
ATOM     39  H15 MOL d         -44.194 -59.200 -12.580  0.00  0.00     0.279 HD
ATOM     40  C22 MOL d         -43.247 -56.821 -13.776  0.00  0.00     0.018 C 
ATOM     41  H16 MOL d         -42.174 -58.665 -13.477  0.00  0.00     0.078 H 
ATOM     42  H17 MOL d         -41.901 -57.424 -12.206  0.00  0.00     0.078 H 
ATOM     43  H18 MOL d         -42.461 -56.291 -14.332  0.00  0.00     0.066 H 
ATOM     44  H19 MOL d         -43.967 -57.258 -14.483  0.00  0.00     0.066 H 
BRANCH  35  45
ATOM     45  C23 MOL d         -43.035 -59.226 -10.906  0.00  0.00     0.066 C 
ATOM     46  H20 MOL d         -43.791 -59.703 -10.265  0.00  0.00     0.068 H 
ATOM     47  H21 MOL d         -42.453 -58.506 -10.313  0.00  0.00     0.068 H 
ATOM     48  H22 MOL d         -42.361 -59.994 -11.314  0.00  0.00     0.068 H 
ENDBRANCH  35  45
ENDBRANCH  24  30
ENDBRANCH  17  20
ENDBRANCH   3  16
BRANCH   9  49
ATOM     49  C20 MOL d         -42.959 -45.890  -8.297  0.00  0.00     0.140 C 
ATOM     50  H27 MOL d         -43.733 -46.260  -8.985  0.00  0.00     0.106 H 
BRANCH  49  51
ATOM     51  C29 MOL d         -42.505 -47.019  -7.428  0.00  0.00    -0.020 A 
ATOM     52  C27 MOL d         -43.238 -48.230  -7.414  0.00  0.00    -0.074 A 
ATOM     53  C28 MOL d         -42.807 -49.300  -6.632  0.00  0.00    -0.082 A 
ATOM     54  H23 MOL d         -44.137 -48.325  -8.013  0.00  0.00     0.084 H 
ATOM     55  C31 MOL d         -41.643 -49.148  -5.852  0.00  0.00    -0.083 A 
ATOM     56  H24 MOL d         -43.357 -50.233  -6.623  0.00  0.00     0.083 H 
ATOM     57  C35 MOL d         -40.916 -47.953  -5.855  0.00  0.00    -0.082 A 
ATOM     58  H25 MOL d         -41.304 -49.974  -5.237  0.00  0.00     0.083 H 
ATOM     59  C33 MOL d         -41.348 -46.889  -6.631  0.00  0.00    -0.074 A 
ATOM     60  H28 MOL d         -40.019 -47.859  -5.253  0.00  0.00     0.083 H 
ATOM     61  H26 MOL d         -40.797 -45.956  -6.625  0.00  0.00     0.084 H 
ENDBRANCH  49  51
BRANCH  49  62
ATOM     62  O34 MOL d         -43.492 -44.788  -7.559  0.00  0.00    -0.377 OA
BRANCH  62  63
ATOM     63  C36 MOL d         -44.768 -45.047  -6.941  0.00  0.00     0.005 C 
ATOM     64  H29 MOL d         -45.101 -44.150  -6.398  0.00  0.00     0.066 H 
ATOM     65  H30 MOL d         -44.672 -45.887  -6.237  0.00  0.00     0.066 H 
ATOM     66  H31 MOL d         -45.507 -45.301  -7.716  0.00  0.00     0.066 H 
ENDBRANCH  62  63
ENDBRANCH  49  62
ENDBRANCH   9  49
TORSDOF 8
ENDMDL
