MODEL 1
REMARK VINA RESULT:      -7.0      0.000      0.000
REMARK  8 active torsions:
REMARK  status: ('A' for Active; 'I' for Inactive)
REMARK       I    between atoms: C25_25  and  N1_1 
REMARK    1  A    between atoms: C3_3  and  N5_5 
REMARK       I    between atoms: N5_5  and  C6_6 
REMARK    2  A    between atoms: C6_6  and  C7_7 
REMARK    3  A    between atoms: C24_24  and  N17_17 
REMARK    4  A    between atoms: N20_20  and  C23_23 
REMARK    5  A    between atoms: C20_32  and  C25_25 
REMARK    6  A    between atoms: C29_29  and  C20_32 
REMARK    7  A    between atoms: C20_32  and  O34_35 
REMARK    8  A    between atoms: O34_35  and  C36_34 
ROOT
ATOM      1  N1  MOL d         -42.825 -47.084  -7.786  0.00  0.00    -0.340 N 
ATOM      2  N2  MOL d         -43.395 -50.137  -5.923  0.00  0.00    -0.278 N 
ATOM      3  C3  MOL d         -43.468 -50.689  -8.085  0.00  0.00     0.160 A 
ATOM      4  N4  MOL d         -43.628 -51.191  -6.847  0.00  0.00    -0.156 NA
ATOM      5  C13 MOL d         -43.096 -49.037  -6.644  0.00  0.00     0.057 A 
ATOM      6  C14 MOL d         -43.145 -49.347  -8.039  0.00  0.00     0.033 A 
ATOM      7  C15 MOL d         -42.860 -48.129  -8.860  0.00  0.00     0.027 C 
ATOM      8  C16 MOL d         -42.788 -47.600  -6.401  0.00  0.00     0.038 C 
ATOM      9  C25 MOL d         -42.821 -45.759  -8.003  0.00  0.00     0.254 C 
ATOM     10  O26 MOL d         -42.790 -44.945  -7.082  0.00  0.00    -0.270 OA
ATOM     11  H1  MOL d         -43.446 -50.201  -4.897  0.00  0.00     0.189 HD
ATOM     12  H7  MOL d         -41.896 -48.208  -9.384  0.00  0.00     0.072 H 
ATOM     13  H8  MOL d         -43.659 -47.935  -9.591  0.00  0.00     0.072 H 
ATOM     14  H9  MOL d         -43.549 -47.122  -5.769  0.00  0.00     0.074 H 
ATOM     15  H10 MOL d         -41.796 -47.469  -5.945  0.00  0.00     0.074 H 
ENDROOT
BRANCH   3  16
ATOM     16  N5  MOL d         -43.657 -51.508  -9.178  0.00  0.00    -0.305 N 
ATOM     17  C6  MOL d         -44.765 -51.609  -9.894  0.00  0.00     0.257 C 
ATOM     18  O8  MOL d         -45.774 -50.959  -9.695  0.00  0.00    -0.267 OA
ATOM     19  H2  MOL d         -42.884 -52.078  -9.455  0.00  0.00     0.170 HD
BRANCH  17  20
ATOM     20  C7  MOL d         -44.763 -52.568 -11.021  0.00  0.00     0.032 A 
ATOM     21  C9  MOL d         -43.727 -52.470 -11.937  0.00  0.00    -0.066 A 
ATOM     22  C10 MOL d         -43.644 -53.335 -13.008  0.00  0.00    -0.056 A 
ATOM     23  H3  MOL d         -42.971 -51.704 -11.809  0.00  0.00     0.085 H 
ATOM     24  C24 MOL d         -44.623 -54.293 -13.154  0.00  0.00     0.030 A 
ATOM     25  H4  MOL d         -42.828 -53.263 -13.719  0.00  0.00     0.086 H 
ATOM     26  C11 MOL d         -45.679 -54.387 -12.229  0.00  0.00    -0.056 A 
ATOM     27  C12 MOL d         -45.756 -53.527 -11.148  0.00  0.00    -0.066 A 
ATOM     28  H5  MOL d         -46.443 -55.144 -12.365  0.00  0.00     0.086 H 
ATOM     29  H6  MOL d         -46.563 -53.600 -10.428  0.00  0.00     0.085 H 
BRANCH  24  30
ATOM     30  N17 MOL d         -44.541 -55.177 -14.244  0.00  0.00    -0.378 N 
ATOM     31  C18 MOL d         -45.563 -55.786 -14.702  0.00  0.00     0.018 C 
ATOM     32  C19 MOL d         -45.442 -57.099 -14.951  0.00  0.00     0.098 C 
ATOM     33  H11 MOL d         -45.842 -55.296 -15.647  0.00  0.00     0.066 H 
ATOM     34  H12 MOL d         -46.376 -55.662 -13.972  0.00  0.00     0.066 H 
ATOM     35  N20 MOL d         -44.152 -57.710 -15.149  0.00  0.00    -0.072 N 
ATOM     36  H13 MOL d         -46.023 -57.297 -15.863  0.00  0.00     0.078 H 
ATOM     37  H14 MOL d         -45.905 -57.619 -14.100  0.00  0.00     0.078 H 
ATOM     38  C21 MOL d         -43.025 -56.906 -14.601  0.00  0.00     0.098 C 
ATOM     39  H15 MOL d         -44.013 -57.808 -16.142  0.00  0.00     0.279 HD
ATOM     40  C22 MOL d         -43.232 -55.415 -14.859  0.00  0.00     0.018 C 
ATOM     41  H16 MOL d         -42.089 -57.226 -15.082  0.00  0.00     0.078 H 
ATOM     42  H17 MOL d         -42.957 -57.076 -13.516  0.00  0.00     0.078 H 
ATOM     43  H18 MOL d         -42.449 -54.813 -14.377  0.00  0.00     0.066 H 
ATOM     44  H19 MOL d         -43.251 -55.196 -15.937  0.00  0.00     0.066 H 
BRANCH  35  45
ATOM     45  C23 MOL d         -44.098 -59.049 -14.530  0.00  0.00     0.066 C 
ATOM     46  H20 MOL d         -43.141 -59.171 -14.003  0.00  0.00     0.068 H 
ATOM     47  H21 MOL d         -44.187 -59.817 -15.312  0.00  0.00     0.068 H 
ATOM     48  H22 MOL d         -44.927 -59.156 -13.815  0.00  0.00     0.068 H 
ENDBRANCH  35  45
ENDBRANCH  24  30
ENDBRANCH  17  20
ENDBRANCH   3  16
BRANCH   9  49
ATOM     49  C20 MOL d         -42.871 -45.260  -9.414  0.00  0.00     0.140 C 
ATOM     50  H27 MOL d         -43.046 -44.174  -9.417  0.00  0.00     0.106 H 
BRANCH  49  51
ATOM     51  C29 MOL d         -41.543 -45.537 -10.043  0.00  0.00    -0.020 A 
ATOM     52  C27 MOL d         -40.371 -44.978  -9.479  0.00  0.00    -0.074 A 
ATOM     53  C28 MOL d         -39.125 -45.255 -10.039  0.00  0.00    -0.082 A 
ATOM     54  H23 MOL d         -40.443 -44.333  -8.611  0.00  0.00     0.084 H 
ATOM     55  C31 MOL d         -39.058 -46.085 -11.176  0.00  0.00    -0.083 A 
ATOM     56  H24 MOL d         -38.222 -44.838  -9.607  0.00  0.00     0.083 H 
ATOM     57  C35 MOL d         -40.211 -46.636 -11.743  0.00  0.00    -0.082 A 
ATOM     58  H25 MOL d         -38.092 -46.300 -11.620  0.00  0.00     0.083 H 
ATOM     59  C33 MOL d         -41.450 -46.357 -11.187  0.00  0.00    -0.074 A 
ATOM     60  H28 MOL d         -40.137 -47.278 -12.613  0.00  0.00     0.083 H 
ATOM     61  H26 MOL d         -42.348 -46.770 -11.632  0.00  0.00     0.084 H 
ENDBRANCH  49  51
BRANCH  49  62
ATOM     62  O34 MOL d         -43.959 -45.900 -10.084  0.00  0.00    -0.377 OA
BRANCH  62  63
ATOM     63  C36 MOL d         -45.232 -45.756  -9.424  0.00  0.00     0.005 C 
ATOM     64  H29 MOL d         -45.739 -44.855  -9.798  0.00  0.00     0.066 H 
ATOM     65  H30 MOL d         -45.076 -45.665  -8.339  0.00  0.00     0.066 H 
ATOM     66  H31 MOL d         -45.855 -46.639  -9.631  0.00  0.00     0.066 H 
ENDBRANCH  62  63
ENDBRANCH  49  62
ENDBRANCH   9  49
TORSDOF 8
ENDMDL
MODEL 2
REMARK VINA RESULT:      -6.8      1.604      2.204
REMARK  8 active torsions:
REMARK  status: ('A' for Active; 'I' for Inactive)
REMARK       I    between atoms: C25_25  and  N1_1 
REMARK    1  A    between atoms: C3_3  and  N5_5 
REMARK       I    between atoms: N5_5  and  C6_6 
REMARK    2  A    between atoms: C6_6  and  C7_7 
REMARK    3  A    between atoms: C24_24  and  N17_17 
REMARK    4  A    between atoms: N20_20  and  C23_23 
REMARK    5  A    between atoms: C20_32  and  C25_25 
REMARK    6  A    between atoms: C29_29  and  C20_32 
REMARK    7  A    between atoms: C20_32  and  O34_35 
REMARK    8  A    between atoms: O34_35  and  C36_34 
ROOT
ATOM      1  N1  MOL d         -42.437 -46.804  -7.541  0.00  0.00    -0.340 N 
ATOM      2  N2  MOL d         -45.484 -48.637  -6.854  0.00  0.00    -0.278 N 
ATOM      3  C3  MOL d         -44.329 -49.855  -8.326  0.00  0.00     0.160 A 
ATOM      4  N4  MOL d         -45.497 -49.808  -7.659  0.00  0.00    -0.156 NA
ATOM      5  C13 MOL d         -44.301 -48.025  -7.062  0.00  0.00     0.057 A 
ATOM      6  C14 MOL d         -43.534 -48.770  -8.012  0.00  0.00     0.033 A 
ATOM      7  C15 MOL d         -42.233 -48.085  -8.293  0.00  0.00     0.027 C 
ATOM      8  C16 MOL d         -43.601 -46.783  -6.630  0.00  0.00     0.038 C 
ATOM      9  C25 MOL d         -41.650 -45.721  -7.641  0.00  0.00     0.254 C 
ATOM     10  O26 MOL d         -41.864 -44.695  -6.998  0.00  0.00    -0.270 OA
ATOM     11  H1  MOL d         -46.237 -48.316  -6.229  0.00  0.00     0.189 HD
ATOM     12  H7  MOL d         -41.379 -48.657  -7.901  0.00  0.00     0.072 H 
ATOM     13  H8  MOL d         -42.091 -47.907  -9.369  0.00  0.00     0.072 H 
ATOM     14  H9  MOL d         -44.223 -45.890  -6.786  0.00  0.00     0.074 H 
ATOM     15  H10 MOL d         -43.294 -46.836  -5.575  0.00  0.00     0.074 H 
ENDROOT
BRANCH   3  16
ATOM     16  N5  MOL d         -44.090 -50.893  -9.200  0.00  0.00    -0.305 N 
ATOM     17  C6  MOL d         -44.067 -50.810 -10.520  0.00  0.00     0.257 C 
ATOM     18  O8  MOL d         -44.228 -49.780 -11.148  0.00  0.00    -0.267 OA
ATOM     19  H2  MOL d         -43.917 -51.792  -8.799  0.00  0.00     0.170 HD
BRANCH  17  20
ATOM     20  C7  MOL d         -43.808 -52.056 -11.277  0.00  0.00     0.032 A 
ATOM     21  C9  MOL d         -43.124 -51.941 -12.477  0.00  0.00    -0.066 A 
ATOM     22  C10 MOL d         -42.831 -53.055 -13.235  0.00  0.00    -0.056 A 
ATOM     23  H3  MOL d         -42.814 -50.962 -12.823  0.00  0.00     0.085 H 
ATOM     24  C24 MOL d         -43.246 -54.286 -12.778  0.00  0.00     0.030 A 
ATOM     25  H4  MOL d         -42.288 -52.964 -14.169  0.00  0.00     0.086 H 
ATOM     26  C11 MOL d         -43.947 -54.402 -11.563  0.00  0.00    -0.056 A 
ATOM     27  C12 MOL d         -44.231 -53.286 -10.797  0.00  0.00    -0.066 A 
ATOM     28  H5  MOL d         -44.269 -55.380 -11.224  0.00  0.00     0.086 H 
ATOM     29  H6  MOL d         -44.765 -53.371  -9.857  0.00  0.00     0.085 H 
BRANCH  24  30
ATOM     30  N17 MOL d         -42.947 -55.424 -13.547  0.00  0.00    -0.378 N 
ATOM     31  C18 MOL d         -42.731 -55.359 -14.802  0.00  0.00     0.018 C 
ATOM     32  C19 MOL d         -43.347 -56.258 -15.584  0.00  0.00     0.098 C 
ATOM     33  H11 MOL d         -41.648 -55.474 -14.956  0.00  0.00     0.066 H 
ATOM     34  H12 MOL d         -43.045 -54.359 -15.138  0.00  0.00     0.066 H 
ATOM     35  N20 MOL d         -43.839 -57.503 -15.052  0.00  0.00    -0.072 N 
ATOM     36  H13 MOL d         -42.632 -56.520 -16.378  0.00  0.00     0.078 H 
ATOM     37  H14 MOL d         -44.213 -55.744 -16.025  0.00  0.00     0.078 H 
ATOM     38  C21 MOL d         -44.032 -57.484 -13.576  0.00  0.00     0.098 C 
ATOM     39  H15 MOL d         -43.160 -58.216 -15.271  0.00  0.00     0.279 HD
ATOM     40  C22 MOL d         -42.899 -56.730 -12.881  0.00  0.00     0.018 C 
ATOM     41  H16 MOL d         -44.055 -58.518 -13.203  0.00  0.00     0.078 H 
ATOM     42  H17 MOL d         -44.987 -56.988 -13.345  0.00  0.00     0.078 H 
ATOM     43  H18 MOL d         -43.086 -56.635 -11.802  0.00  0.00     0.066 H 
ATOM     44  H19 MOL d         -41.931 -57.226 -13.044  0.00  0.00     0.066 H 
BRANCH  35  45
ATOM     45  C23 MOL d         -45.126 -57.874 -15.673  0.00  0.00     0.066 C 
ATOM     46  H20 MOL d         -45.738 -56.971 -15.815  0.00  0.00     0.068 H 
ATOM     47  H21 MOL d         -45.659 -58.579 -15.018  0.00  0.00     0.068 H 
ATOM     48  H22 MOL d         -44.940 -58.349 -16.647  0.00  0.00     0.068 H 
ENDBRANCH  35  45
ENDBRANCH  24  30
ENDBRANCH  17  20
ENDBRANCH   3  16
BRANCH   9  49
ATOM     49  C20 MOL d         -40.484 -45.762  -8.579  0.00  0.00     0.140 C 
ATOM     50  H27 MOL d         -40.010 -46.754  -8.540  0.00  0.00     0.106 H 
BRANCH  49  51
ATOM     51  C29 MOL d         -41.002 -45.528  -9.962  0.00  0.00    -0.020 A 
ATOM     52  C27 MOL d         -40.092 -45.312 -11.023  0.00  0.00    -0.074 A 
ATOM     53  C28 MOL d         -40.563 -45.124 -12.322  0.00  0.00    -0.082 A 
ATOM     54  H23 MOL d         -39.026 -45.293 -10.826  0.00  0.00     0.084 H 
ATOM     55  C31 MOL d         -41.954 -45.140 -12.551  0.00  0.00    -0.083 A 
ATOM     56  H24 MOL d         -39.872 -44.968 -13.142  0.00  0.00     0.083 H 
ATOM     57  C35 MOL d         -42.860 -45.345 -11.506  0.00  0.00    -0.082 A 
ATOM     58  H25 MOL d         -42.328 -44.988 -13.557  0.00  0.00     0.083 H 
ATOM     59  C33 MOL d         -42.390 -45.529 -10.216  0.00  0.00    -0.074 A 
ATOM     60  H28 MOL d         -43.926 -45.361 -11.705  0.00  0.00     0.083 H 
ATOM     61  H26 MOL d         -43.090 -45.674  -9.400  0.00  0.00     0.084 H 
ENDBRANCH  49  51
BRANCH  49  62
ATOM     62  O34 MOL d         -39.530 -44.784  -8.160  0.00  0.00    -0.377 OA
BRANCH  62  63
ATOM     63  C36 MOL d         -39.803 -43.448  -8.626  0.00  0.00     0.005 C 
ATOM     64  H29 MOL d         -40.784 -43.425  -9.122  0.00  0.00     0.066 H 
ATOM     65  H30 MOL d         -39.025 -43.142  -9.341  0.00  0.00     0.066 H 
ATOM     66  H31 MOL d         -39.808 -42.754  -7.772  0.00  0.00     0.066 H 
ENDBRANCH  62  63
ENDBRANCH  49  62
ENDBRANCH   9  49
TORSDOF 8
ENDMDL
MODEL 3
REMARK VINA RESULT:      -6.8      1.804      2.644
REMARK  8 active torsions:
REMARK  status: ('A' for Active; 'I' for Inactive)
REMARK       I    between atoms: C25_25  and  N1_1 
REMARK    1  A    between atoms: C3_3  and  N5_5 
REMARK       I    between atoms: N5_5  and  C6_6 
REMARK    2  A    between atoms: C6_6  and  C7_7 
REMARK    3  A    between atoms: C24_24  and  N17_17 
REMARK    4  A    between atoms: N20_20  and  C23_23 
REMARK    5  A    between atoms: C20_32  and  C25_25 
REMARK    6  A    between atoms: C29_29  and  C20_32 
REMARK    7  A    between atoms: C20_32  and  O34_35 
REMARK    8  A    between atoms: O34_35  and  C36_34 
ROOT
ATOM      1  N1  MOL d         -43.580 -48.245  -7.138  0.00  0.00    -0.340 N 
ATOM      2  N2  MOL d         -45.975 -50.694  -5.964  0.00  0.00    -0.278 N 
ATOM      3  C3  MOL d         -44.841 -51.661  -7.626  0.00  0.00     0.160 A 
ATOM      4  N4  MOL d         -45.860 -51.859  -6.770  0.00  0.00    -0.156 NA
ATOM      5  C13 MOL d         -45.013 -49.839  -6.364  0.00  0.00     0.057 A 
ATOM      6  C14 MOL d         -44.270 -50.418  -7.439  0.00  0.00     0.033 A 
ATOM      7  C15 MOL d         -43.223 -49.467  -7.930  0.00  0.00     0.027 C 
ATOM      8  C16 MOL d         -44.548 -48.461  -6.042  0.00  0.00     0.038 C 
ATOM      9  C25 MOL d         -43.086 -47.016  -7.357  0.00  0.00     0.254 C 
ATOM     10  O26 MOL d         -43.414 -46.047  -6.674  0.00  0.00    -0.270 OA
ATOM     11  H1  MOL d         -46.664 -50.534  -5.216  0.00  0.00     0.189 HD
ATOM     12  H7  MOL d         -42.209 -49.822  -7.696  0.00  0.00     0.072 H 
ATOM     13  H8  MOL d         -43.308 -49.290  -9.012  0.00  0.00     0.072 H 
ATOM     14  H9  MOL d         -45.373 -47.734  -6.079  0.00  0.00     0.074 H 
ATOM     15  H10 MOL d         -44.063 -48.415  -5.056  0.00  0.00     0.074 H 
ENDROOT
BRANCH   3  16
ATOM     16  N5  MOL d         -44.525 -52.642  -8.542  0.00  0.00    -0.305 N 
ATOM     17  C6  MOL d         -44.856 -52.649  -9.822  0.00  0.00     0.257 C 
ATOM     18  O8  MOL d         -45.471 -51.758 -10.378  0.00  0.00    -0.267 OA
ATOM     19  H2  MOL d         -43.997 -53.421  -8.206  0.00  0.00     0.170 HD
BRANCH  17  20
ATOM     20  C7  MOL d         -44.431 -53.814 -10.630  0.00  0.00     0.032 A 
ATOM     21  C9  MOL d         -44.018 -53.569 -11.931  0.00  0.00    -0.066 A 
ATOM     22  C10 MOL d         -43.594 -54.598 -12.745  0.00  0.00    -0.056 A 
ATOM     23  H3  MOL d         -44.029 -52.555 -12.313  0.00  0.00     0.085 H 
ATOM     24  C24 MOL d         -43.601 -55.879 -12.239  0.00  0.00     0.030 A 
ATOM     25  H4  MOL d         -43.263 -54.404 -13.759  0.00  0.00     0.086 H 
ATOM     26  C11 MOL d         -44.028 -56.128 -10.921  0.00  0.00    -0.056 A 
ATOM     27  C12 MOL d         -44.443 -55.095 -10.100  0.00  0.00    -0.066 A 
ATOM     28  H5  MOL d         -44.031 -57.144 -10.544  0.00  0.00     0.086 H 
ATOM     29  H6  MOL d         -44.765 -55.281  -9.082  0.00  0.00     0.085 H 
BRANCH  24  30
ATOM     30  N17 MOL d         -43.167 -56.930 -13.065  0.00  0.00    -0.378 N 
ATOM     31  C18 MOL d         -42.977 -56.778 -14.316  0.00  0.00     0.018 C 
ATOM     32  C19 MOL d         -43.481 -57.711 -15.137  0.00  0.00     0.098 C 
ATOM     33  H11 MOL d         -41.891 -56.743 -14.483  0.00  0.00     0.066 H 
ATOM     34  H12 MOL d         -43.422 -55.813 -14.601  0.00  0.00     0.066 H 
ATOM     35  N20 MOL d         -43.800 -59.034 -14.664  0.00  0.00    -0.072 N 
ATOM     36  H13 MOL d         -42.748 -57.839 -15.948  0.00  0.00     0.078 H 
ATOM     37  H14 MOL d         -44.412 -57.294 -15.547  0.00  0.00     0.078 H 
ATOM     38  C21 MOL d         -43.974 -59.110 -13.187  0.00  0.00     0.098 C 
ATOM     39  H15 MOL d         -43.037 -59.640 -14.922  0.00  0.00     0.279 HD
ATOM     40  C22 MOL d         -42.941 -58.249 -12.464  0.00  0.00     0.018 C 
ATOM     41  H16 MOL d         -43.858 -60.156 -12.865  0.00  0.00     0.078 H 
ATOM     42  H17 MOL d         -44.983 -58.755 -12.926  0.00  0.00     0.078 H 
ATOM     43  H18 MOL d         -43.124 -58.231 -11.380  0.00  0.00     0.066 H 
ATOM     44  H19 MOL d         -41.919 -58.606 -12.657  0.00  0.00     0.066 H 
BRANCH  35  45
ATOM     45  C23 MOL d         -45.035 -59.539 -15.294  0.00  0.00     0.066 C 
ATOM     46  H20 MOL d         -44.883 -59.630 -16.379  0.00  0.00     0.068 H 
ATOM     47  H21 MOL d         -45.860 -58.839 -15.097  0.00  0.00     0.068 H 
ATOM     48  H22 MOL d         -45.284 -60.525 -14.874  0.00  0.00     0.068 H 
ENDBRANCH  35  45
ENDBRANCH  24  30
ENDBRANCH  17  20
ENDBRANCH   3  16
BRANCH   9  49
ATOM     49  C20 MOL d         -42.116 -46.819  -8.481  0.00  0.00     0.140 C 
ATOM     50  H27 MOL d         -41.138 -47.239  -8.205  0.00  0.00     0.106 H 
BRANCH  49  51
ATOM     51  C29 MOL d         -42.640 -47.559  -9.670  0.00  0.00    -0.020 A 
ATOM     52  C27 MOL d         -41.748 -48.296 -10.485  0.00  0.00    -0.074 A 
ATOM     53  C28 MOL d         -42.230 -49.014 -11.578  0.00  0.00    -0.082 A 
ATOM     54  H23 MOL d         -40.688 -48.302 -10.258  0.00  0.00     0.084 H 
ATOM     55  C31 MOL d         -43.610 -48.980 -11.861  0.00  0.00    -0.083 A 
ATOM     56  H24 MOL d         -41.555 -49.589 -12.201  0.00  0.00     0.083 H 
ATOM     57  C35 MOL d         -44.498 -48.248 -11.065  0.00  0.00    -0.082 A 
ATOM     58  H25 MOL d         -43.991 -49.531 -12.713  0.00  0.00     0.083 H 
ATOM     59  C33 MOL d         -44.016 -47.533  -9.981  0.00  0.00    -0.074 A 
ATOM     60  H28 MOL d         -45.557 -48.241 -11.295  0.00  0.00     0.083 H 
ATOM     61  H26 MOL d         -44.698 -46.952  -9.369  0.00  0.00     0.084 H 
ENDBRANCH  49  51
BRANCH  49  62
ATOM     62  O34 MOL d         -41.964 -45.416  -8.709  0.00  0.00    -0.377 OA
BRANCH  62  63
ATOM     63  C36 MOL d         -40.607 -44.941  -8.617  0.00  0.00     0.005 C 
ATOM     64  H29 MOL d         -40.475 -44.387  -7.676  0.00  0.00     0.066 H 
ATOM     65  H30 MOL d         -40.392 -44.276  -9.466  0.00  0.00     0.066 H 
ATOM     66  H31 MOL d         -39.916 -45.797  -8.638  0.00  0.00     0.066 H 
ENDBRANCH  62  63
ENDBRANCH  49  62
ENDBRANCH   9  49
TORSDOF 8
ENDMDL
MODEL 4
REMARK VINA RESULT:      -6.8      2.197      2.958
REMARK  8 active torsions:
REMARK  status: ('A' for Active; 'I' for Inactive)
REMARK       I    between atoms: C25_25  and  N1_1 
REMARK    1  A    between atoms: C3_3  and  N5_5 
REMARK       I    between atoms: N5_5  and  C6_6 
REMARK    2  A    between atoms: C6_6  and  C7_7 
REMARK    3  A    between atoms: C24_24  and  N17_17 
REMARK    4  A    between atoms: N20_20  and  C23_23 
REMARK    5  A    between atoms: C20_32  and  C25_25 
REMARK    6  A    between atoms: C29_29  and  C20_32 
REMARK    7  A    between atoms: C20_32  and  O34_35 
REMARK    8  A    between atoms: O34_35  and  C36_34 
ROOT
ATOM      1  N1  MOL d         -44.214 -48.658  -8.561  0.00  0.00    -0.340 N 
ATOM      2  N2  MOL d         -46.083 -51.026  -6.557  0.00  0.00    -0.278 N 
ATOM      3  C3  MOL d         -45.001 -52.218  -8.104  0.00  0.00     0.160 A 
ATOM      4  N4  MOL d         -45.883 -52.326  -7.093  0.00  0.00    -0.156 NA
ATOM      5  C13 MOL d         -45.305 -50.182  -7.264  0.00  0.00     0.057 A 
ATOM      6  C14 MOL d         -44.604 -50.907  -8.277  0.00  0.00     0.033 A 
ATOM      7  C15 MOL d         -43.767 -49.982  -9.105  0.00  0.00     0.027 C 
ATOM      8  C16 MOL d         -45.017 -48.721  -7.321  0.00  0.00     0.038 C 
ATOM      9  C25 MOL d         -43.933 -47.467  -9.112  0.00  0.00     0.254 C 
ATOM     10  O26 MOL d         -44.325 -46.409  -8.622  0.00  0.00    -0.270 OA
ATOM     11  H1  MOL d         -46.704 -50.775  -5.775  0.00  0.00     0.189 HD
ATOM     12  H7  MOL d         -42.692 -50.148  -8.940  0.00  0.00     0.072 H 
ATOM     13  H8  MOL d         -43.992 -50.079 -10.177  0.00  0.00     0.072 H 
ATOM     14  H9  MOL d         -45.939 -48.128  -7.404  0.00  0.00     0.074 H 
ATOM     15  H10 MOL d         -44.442 -48.385  -6.446  0.00  0.00     0.074 H 
ENDROOT
BRANCH   3  16
ATOM     16  N5  MOL d         -44.644 -53.343  -8.815  0.00  0.00    -0.305 N 
ATOM     17  C6  MOL d         -44.933 -53.590 -10.082  0.00  0.00     0.257 C 
ATOM     18  O8  MOL d         -45.540 -52.826 -10.810  0.00  0.00    -0.267 OA
ATOM     19  H2  MOL d         -44.117 -54.038  -8.327  0.00  0.00     0.170 HD
BRANCH  17  20
ATOM     20  C7  MOL d         -44.467 -54.874 -10.650  0.00  0.00     0.032 A 
ATOM     21  C9  MOL d         -44.030 -54.867 -11.966  0.00  0.00    -0.066 A 
ATOM     22  C10 MOL d         -43.567 -56.020 -12.565  0.00  0.00    -0.056 A 
ATOM     23  H3  MOL d         -44.051 -53.942 -12.531  0.00  0.00     0.085 H 
ATOM     24  C24 MOL d         -43.561 -57.183 -11.829  0.00  0.00     0.030 A 
ATOM     25  H4  MOL d         -43.217 -56.010 -13.591  0.00  0.00     0.086 H 
ATOM     26  C11 MOL d         -44.012 -57.193 -10.496  0.00  0.00    -0.056 A 
ATOM     27  C12 MOL d         -44.466 -56.035  -9.891  0.00  0.00    -0.066 A 
ATOM     28  H5  MOL d         -44.004 -58.120  -9.936  0.00  0.00     0.086 H 
ATOM     29  H6  MOL d         -44.807 -56.035  -8.862  0.00  0.00     0.085 H 
BRANCH  24  30
ATOM     30  N17 MOL d         -43.088 -58.360 -12.436  0.00  0.00    -0.378 N 
ATOM     31  C18 MOL d         -41.917 -58.814 -12.217  0.00  0.00     0.018 C 
ATOM     32  C19 MOL d         -41.194 -59.201 -13.278  0.00  0.00     0.098 C 
ATOM     33  H11 MOL d         -42.020 -59.685 -11.553  0.00  0.00     0.066 H 
ATOM     34  H12 MOL d         -41.349 -58.025 -11.700  0.00  0.00     0.066 H 
ATOM     35  N20 MOL d         -41.820 -59.540 -14.530  0.00  0.00    -0.072 N 
ATOM     36  H13 MOL d         -40.630 -60.091 -12.962  0.00  0.00     0.078 H 
ATOM     37  H14 MOL d         -40.494 -58.380 -13.493  0.00  0.00     0.078 H 
ATOM     38  C21 MOL d         -43.194 -58.984 -14.676  0.00  0.00     0.098 C 
ATOM     39  H15 MOL d         -41.882 -60.545 -14.576  0.00  0.00     0.279 HD
ATOM     40  C22 MOL d         -43.969 -59.076 -13.363  0.00  0.00     0.018 C 
ATOM     41  H16 MOL d         -43.731 -59.552 -15.450  0.00  0.00     0.078 H 
ATOM     42  H17 MOL d         -43.124 -57.928 -14.977  0.00  0.00     0.078 H 
ATOM     43  H18 MOL d         -44.950 -58.584 -13.442  0.00  0.00     0.066 H 
ATOM     44  H19 MOL d         -44.108 -60.123 -13.055  0.00  0.00     0.066 H 
BRANCH  35  45
ATOM     45  C23 MOL d         -41.015 -59.065 -15.673  0.00  0.00     0.066 C 
ATOM     46  H20 MOL d         -40.219 -58.399 -15.309  0.00  0.00     0.068 H 
ATOM     47  H21 MOL d         -41.661 -58.514 -16.373  0.00  0.00     0.068 H 
ATOM     48  H22 MOL d         -40.567 -59.927 -16.189  0.00  0.00     0.068 H 
ENDBRANCH  35  45
ENDBRANCH  24  30
ENDBRANCH  17  20
ENDBRANCH   3  16
BRANCH   9  49
ATOM     49  C20 MOL d         -43.128 -47.429 -10.374  0.00  0.00     0.140 C 
ATOM     50  H27 MOL d         -43.744 -47.037 -11.197  0.00  0.00     0.106 H 
BRANCH  49  51
ATOM     51  C29 MOL d         -41.975 -46.502 -10.151  0.00  0.00    -0.020 A 
ATOM     52  C27 MOL d         -41.387 -45.839 -11.255  0.00  0.00    -0.074 A 
ATOM     53  C28 MOL d         -40.333 -44.949 -11.055  0.00  0.00    -0.082 A 
ATOM     54  H23 MOL d         -41.758 -46.023 -12.256  0.00  0.00     0.084 H 
ATOM     55  C31 MOL d         -39.859 -44.737  -9.745  0.00  0.00    -0.083 A 
ATOM     56  H24 MOL d         -39.884 -44.429 -11.894  0.00  0.00     0.083 H 
ATOM     57  C35 MOL d         -40.430 -45.393  -8.650  0.00  0.00    -0.082 A 
ATOM     58  H25 MOL d         -39.036 -44.050  -9.583  0.00  0.00     0.083 H 
ATOM     59  C33 MOL d         -41.476 -46.280  -8.850  0.00  0.00    -0.074 A 
ATOM     60  H28 MOL d         -40.056 -45.210  -7.649  0.00  0.00     0.083 H 
ATOM     61  H26 MOL d         -41.912 -46.802  -8.007  0.00  0.00     0.084 H 
ENDBRANCH  49  51
BRANCH  49  62
ATOM     62  O34 MOL d         -42.727 -48.762 -10.697  0.00  0.00    -0.377 OA
BRANCH  62  63
ATOM     63  C36 MOL d         -42.530 -49.000 -12.105  0.00  0.00     0.005 C 
ATOM     64  H29 MOL d         -41.812 -48.270 -12.504  0.00  0.00     0.066 H 
ATOM     65  H30 MOL d         -43.490 -48.895 -12.633  0.00  0.00     0.066 H 
ATOM     66  H31 MOL d         -42.140 -50.018 -12.254  0.00  0.00     0.066 H 
ENDBRANCH  62  63
ENDBRANCH  49  62
ENDBRANCH   9  49
TORSDOF 8
ENDMDL
MODEL 5
REMARK VINA RESULT:      -6.8      2.297      2.997
REMARK  8 active torsions:
REMARK  status: ('A' for Active; 'I' for Inactive)
REMARK       I    between atoms: C25_25  and  N1_1 
REMARK    1  A    between atoms: C3_3  and  N5_5 
REMARK       I    between atoms: N5_5  and  C6_6 
REMARK    2  A    between atoms: C6_6  and  C7_7 
REMARK    3  A    between atoms: C24_24  and  N17_17 
REMARK    4  A    between atoms: N20_20  and  C23_23 
REMARK    5  A    between atoms: C20_32  and  C25_25 
REMARK    6  A    between atoms: C29_29  and  C20_32 
REMARK    7  A    between atoms: C20_32  and  O34_35 
REMARK    8  A    between atoms: O34_35  and  C36_34 
ROOT
ATOM      1  N1  MOL d         -43.084 -47.286  -7.469  0.00  0.00    -0.340 N 
ATOM      2  N2  MOL d         -45.836 -49.061  -5.923  0.00  0.00    -0.278 N 
ATOM      3  C3  MOL d         -44.886 -50.486  -7.355  0.00  0.00     0.160 A 
ATOM      4  N4  MOL d         -45.917 -50.357  -6.500  0.00  0.00    -0.156 NA
ATOM      5  C13 MOL d         -44.751 -48.460  -6.450  0.00  0.00     0.057 A 
ATOM      6  C14 MOL d         -44.119 -49.338  -7.385  0.00  0.00     0.033 A 
ATOM      7  C15 MOL d         -42.936 -48.674  -8.017  0.00  0.00     0.027 C 
ATOM      8  C16 MOL d         -44.066 -47.139  -6.374  0.00  0.00     0.038 C 
ATOM      9  C25 MOL d         -42.400 -46.214  -7.897  0.00  0.00     0.254 C 
ATOM     10  O26 MOL d         -42.560 -45.096  -7.410  0.00  0.00    -0.270 OA
ATOM     11  H1  MOL d         -46.485 -48.658  -5.232  0.00  0.00     0.189 HD
ATOM     12  H7  MOL d         -41.991 -49.138  -7.699  0.00  0.00     0.072 H 
ATOM     13  H8  MOL d         -43.000 -48.687  -9.114  0.00  0.00     0.072 H 
ATOM     14  H9  MOL d         -44.763 -46.308  -6.561  0.00  0.00     0.074 H 
ATOM     15  H10 MOL d         -43.573 -46.992  -5.402  0.00  0.00     0.074 H 
ENDROOT
BRANCH   3  16
ATOM     16  N5  MOL d         -44.740 -51.656  -8.069  0.00  0.00    -0.305 N 
ATOM     17  C6  MOL d         -44.998 -51.821  -9.356  0.00  0.00     0.257 C 
ATOM     18  O8  MOL d         -45.377 -50.936 -10.100  0.00  0.00    -0.267 OA
ATOM     19  H2  MOL d         -44.409 -52.454  -7.567  0.00  0.00     0.170 HD
BRANCH  17  20
ATOM     20  C7  MOL d         -44.790 -53.171  -9.925  0.00  0.00     0.032 A 
ATOM     21  C9  MOL d         -44.967 -54.253  -9.077  0.00  0.00    -0.066 A 
ATOM     22  C10 MOL d         -44.806 -55.545  -9.532  0.00  0.00    -0.056 A 
ATOM     23  H3  MOL d         -45.236 -54.081  -8.041  0.00  0.00     0.085 H 
ATOM     24  C24 MOL d         -44.454 -55.736 -10.850  0.00  0.00     0.030 A 
ATOM     25  H4  MOL d         -44.953 -56.390  -8.869  0.00  0.00     0.086 H 
ATOM     26  C11 MOL d         -44.267 -54.637 -11.710  0.00  0.00    -0.056 A 
ATOM     27  C12 MOL d         -44.439 -53.342 -11.256  0.00  0.00    -0.066 A 
ATOM     28  H5  MOL d         -43.985 -54.808 -12.742  0.00  0.00     0.086 H 
ATOM     29  H6  MOL d         -44.304 -52.492 -11.916  0.00  0.00     0.085 H 
BRANCH  24  30
ATOM     30  N17 MOL d         -44.292 -57.051 -11.319  0.00  0.00    -0.378 N 
ATOM     31  C18 MOL d         -44.448 -58.065 -10.563  0.00  0.00     0.018 C 
ATOM     32  C19 MOL d         -43.515 -59.027 -10.616  0.00  0.00     0.098 C 
ATOM     33  H11 MOL d         -45.412 -58.526 -10.827  0.00  0.00     0.066 H 
ATOM     34  H12 MOL d         -44.488 -57.701  -9.526  0.00  0.00     0.066 H 
ATOM     35  N20 MOL d         -42.646 -59.168 -11.757  0.00  0.00    -0.072 N 
ATOM     36  H13 MOL d         -44.048 -59.983 -10.512  0.00  0.00     0.078 H 
ATOM     37  H14 MOL d         -42.862 -58.874  -9.745  0.00  0.00     0.078 H 
ATOM     38  C21 MOL d         -42.553 -57.936 -12.588  0.00  0.00     0.098 C 
ATOM     39  H15 MOL d         -43.019 -59.907 -12.332  0.00  0.00     0.279 HD
ATOM     40  C22 MOL d         -43.914 -57.256 -12.721  0.00  0.00     0.018 C 
ATOM     41  H16 MOL d         -42.188 -58.206 -13.590  0.00  0.00     0.078 H 
ATOM     42  H17 MOL d         -41.847 -57.237 -12.116  0.00  0.00     0.078 H 
ATOM     43  H18 MOL d         -43.832 -56.299 -13.256  0.00  0.00     0.066 H 
ATOM     44  H19 MOL d         -44.636 -57.904 -13.238  0.00  0.00     0.066 H 
BRANCH  35  45
ATOM     45  C23 MOL d         -41.279 -59.539 -11.341  0.00  0.00     0.066 C 
ATOM     46  H20 MOL d         -40.621 -58.662 -11.422  0.00  0.00     0.068 H 
ATOM     47  H21 MOL d         -40.903 -60.342 -11.993  0.00  0.00     0.068 H 
ATOM     48  H22 MOL d         -41.296 -59.892 -10.299  0.00  0.00     0.068 H 
ENDBRANCH  35  45
ENDBRANCH  24  30
ENDBRANCH  17  20
ENDBRANCH   3  16
BRANCH   9  49
ATOM     49  C20 MOL d         -41.419 -46.385  -9.016  0.00  0.00     0.140 C 
ATOM     50  H27 MOL d         -40.515 -46.890  -8.644  0.00  0.00     0.106 H 
BRANCH  49  51
ATOM     51  C29 MOL d         -42.060 -47.247 -10.056  0.00  0.00    -0.020 A 
ATOM     52  C27 MOL d         -41.295 -48.243 -10.708  0.00  0.00    -0.074 A 
ATOM     53  C28 MOL d         -41.889 -49.072 -11.658  0.00  0.00    -0.082 A 
ATOM     54  H23 MOL d         -40.244 -48.361 -10.469  0.00  0.00     0.084 H 
ATOM     55  C31 MOL d         -43.254 -48.891 -11.962  0.00  0.00    -0.083 A 
ATOM     56  H24 MOL d         -41.313 -49.844 -12.154  0.00  0.00     0.083 H 
ATOM     57  C35 MOL d         -44.015 -47.904 -11.327  0.00  0.00    -0.082 A 
ATOM     58  H25 MOL d         -43.722 -49.529 -12.703  0.00  0.00     0.083 H 
ATOM     59  C33 MOL d         -43.421 -47.078 -10.386  0.00  0.00    -0.074 A 
ATOM     60  H28 MOL d         -45.065 -47.786 -11.570  0.00  0.00     0.083 H 
ATOM     61  H26 MOL d         -44.003 -46.303  -9.902  0.00  0.00     0.084 H 
ENDBRANCH  49  51
BRANCH  49  62
ATOM     62  O34 MOL d         -41.053 -45.091  -9.500  0.00  0.00    -0.377 OA
BRANCH  62  63
ATOM     63  C36 MOL d         -39.673 -44.973  -9.900  0.00  0.00     0.005 C 
ATOM     64  H29 MOL d         -39.038 -45.532  -9.197  0.00  0.00     0.066 H 
ATOM     65  H30 MOL d         -39.379 -43.913  -9.895  0.00  0.00     0.066 H 
ATOM     66  H31 MOL d         -39.547 -45.383 -10.913  0.00  0.00     0.066 H 
ENDBRANCH  62  63
ENDBRANCH  49  62
ENDBRANCH   9  49
TORSDOF 8
ENDMDL
MODEL 6
REMARK VINA RESULT:      -6.0      3.511     10.933
REMARK  8 active torsions:
REMARK  status: ('A' for Active; 'I' for Inactive)
REMARK       I    between atoms: C25_25  and  N1_1 
REMARK    1  A    between atoms: C3_3  and  N5_5 
REMARK       I    between atoms: N5_5  and  C6_6 
REMARK    2  A    between atoms: C6_6  and  C7_7 
REMARK    3  A    between atoms: C24_24  and  N17_17 
REMARK    4  A    between atoms: N20_20  and  C23_23 
REMARK    5  A    between atoms: C20_32  and  C25_25 
REMARK    6  A    between atoms: C29_29  and  C20_32 
REMARK    7  A    between atoms: C20_32  and  O34_35 
REMARK    8  A    between atoms: O34_35  and  C36_34 
ROOT
ATOM      1  N1  MOL d         -44.190 -57.080 -13.473  0.00  0.00    -0.340 N 
ATOM      2  N2  MOL d         -46.594 -54.738 -14.835  0.00  0.00    -0.278 N 
ATOM      3  C3  MOL d         -45.540 -53.675 -13.178  0.00  0.00     0.160 A 
ATOM      4  N4  MOL d         -46.532 -53.537 -14.077  0.00  0.00    -0.156 NA
ATOM      5  C13 MOL d         -45.628 -55.553 -14.365  0.00  0.00     0.057 A 
ATOM      6  C14 MOL d         -44.937 -54.912 -13.291  0.00  0.00     0.033 A 
ATOM      7  C15 MOL d         -43.889 -55.817 -12.723  0.00  0.00     0.027 C 
ATOM      8  C16 MOL d         -45.123 -56.933 -14.611  0.00  0.00     0.038 C 
ATOM      9  C25 MOL d         -43.679 -58.286 -13.183  0.00  0.00     0.254 C 
ATOM     10  O26 MOL d         -43.961 -59.291 -13.834  0.00  0.00    -0.270 OA
ATOM     11  H1  MOL d         -47.252 -54.946 -15.599  0.00  0.00     0.189 HD
ATOM     12  H7  MOL d         -42.874 -55.449 -12.937  0.00  0.00     0.072 H 
ATOM     13  H8  MOL d         -44.009 -55.949 -11.638  0.00  0.00     0.072 H 
ATOM     14  H9  MOL d         -45.933 -57.675 -14.571  0.00  0.00     0.074 H 
ATOM     15  H10 MOL d         -44.602 -57.009 -15.576  0.00  0.00     0.074 H 
ENDROOT
BRANCH   3  16
ATOM     16  N5  MOL d         -45.279 -52.649 -12.296  0.00  0.00    -0.305 N 
ATOM     17  C6  MOL d         -44.120 -52.029 -12.142  0.00  0.00     0.257 C 
ATOM     18  O8  MOL d         -43.121 -52.269 -12.794  0.00  0.00    -0.267 OA
ATOM     19  H2  MOL d         -46.036 -52.345 -11.717  0.00  0.00     0.170 HD
BRANCH  17  20
ATOM     20  C7  MOL d         -44.048 -50.962 -11.120  0.00  0.00     0.032 A 
ATOM     21  C9  MOL d         -44.297 -49.663 -11.538  0.00  0.00    -0.066 A 
ATOM     22  C10 MOL d         -44.263 -48.613 -10.645  0.00  0.00    -0.056 A 
ATOM     23  H3  MOL d         -44.522 -49.471 -12.581  0.00  0.00     0.085 H 
ATOM     24  C24 MOL d         -43.965 -48.882  -9.328  0.00  0.00     0.030 A 
ATOM     25  H4  MOL d         -44.467 -47.599 -10.972  0.00  0.00     0.086 H 
ATOM     26  C11 MOL d         -43.705 -50.199  -8.905  0.00  0.00    -0.056 A 
ATOM     27  C12 MOL d         -43.749 -51.254  -9.798  0.00  0.00    -0.066 A 
ATOM     28  H5  MOL d         -43.466 -50.389  -7.865  0.00  0.00     0.086 H 
ATOM     29  H6  MOL d         -43.557 -52.272  -9.476  0.00  0.00     0.085 H 
BRANCH  24  30
ATOM     30  N17 MOL d         -43.932 -47.814  -8.414  0.00  0.00    -0.378 N 
ATOM     31  C18 MOL d         -44.375 -46.655  -8.708  0.00  0.00     0.018 C 
ATOM     32  C19 MOL d         -43.609 -45.601  -8.390  0.00  0.00     0.098 C 
ATOM     33  H11 MOL d         -45.338 -46.530  -8.191  0.00  0.00     0.066 H 
ATOM     34  H12 MOL d         -44.536 -46.630  -9.796  0.00  0.00     0.066 H 
ATOM     35  N20 MOL d         -42.588 -45.692  -7.377  0.00  0.00    -0.072 N 
ATOM     36  H13 MOL d         -44.295 -44.804  -8.068  0.00  0.00     0.078 H 
ATOM     37  H14 MOL d         -43.101 -45.296  -9.316  0.00  0.00     0.078 H 
ATOM     38  C21 MOL d         -42.161 -47.089  -7.090  0.00  0.00     0.098 C 
ATOM     39  H15 MOL d         -42.967 -45.300  -6.529  0.00  0.00     0.279 HD
ATOM     40  C22 MOL d         -43.354 -48.043  -7.086  0.00  0.00     0.018 C 
ATOM     41  H16 MOL d         -41.674 -47.121  -6.103  0.00  0.00     0.078 H 
ATOM     42  H17 MOL d         -41.446 -47.412  -7.862  0.00  0.00     0.078 H 
ATOM     43  H18 MOL d         -43.031 -49.087  -6.966  0.00  0.00     0.066 H 
ATOM     44  H19 MOL d         -44.067 -47.785  -6.290  0.00  0.00     0.066 H 
BRANCH  35  45
ATOM     45  C23 MOL d         -41.390 -44.920  -7.759  0.00  0.00     0.066 C 
ATOM     46  H20 MOL d         -41.002 -44.385  -6.879  0.00  0.00     0.068 H 
ATOM     47  H21 MOL d         -41.655 -44.194  -8.542  0.00  0.00     0.068 H 
ATOM     48  H22 MOL d         -40.619 -45.605  -8.141  0.00  0.00     0.068 H 
ENDBRANCH  35  45
ENDBRANCH  24  30
ENDBRANCH  17  20
ENDBRANCH   3  16
BRANCH   9  49
ATOM     49  C20 MOL d         -42.746 -58.413 -12.019  0.00  0.00     0.140 C 
ATOM     50  H27 MOL d         -42.134 -57.503 -11.933  0.00  0.00     0.106 H 
BRANCH  49  51
ATOM     51  C29 MOL d         -43.576 -58.556 -10.783  0.00  0.00    -0.020 A 
ATOM     52  C27 MOL d         -43.240 -57.816  -9.625  0.00  0.00    -0.074 A 
ATOM     53  C28 MOL d         -44.024 -57.918  -8.477  0.00  0.00    -0.082 A 
ATOM     54  H23 MOL d         -42.371 -57.168  -9.631  0.00  0.00     0.084 H 
ATOM     55  C31 MOL d         -45.141 -58.778  -8.490  0.00  0.00    -0.083 A 
ATOM     56  H24 MOL d         -43.779 -57.347  -7.590  0.00  0.00     0.083 H 
ATOM     57  C35 MOL d         -45.476 -59.519  -9.628  0.00  0.00    -0.082 A 
ATOM     58  H25 MOL d         -45.752 -58.867  -7.599  0.00  0.00     0.083 H 
ATOM     59  C33 MOL d         -44.693 -59.418 -10.767  0.00  0.00    -0.074 A 
ATOM     60  H28 MOL d         -46.343 -60.169  -9.619  0.00  0.00     0.083 H 
ATOM     61  H26 MOL d         -44.939 -60.001 -11.647  0.00  0.00     0.084 H 
ENDBRANCH  49  51
BRANCH  49  62
ATOM     62  O34 MOL d         -41.879 -59.526 -12.251  0.00  0.00    -0.377 OA
BRANCH  62  63
ATOM     63  C36 MOL d         -40.785 -59.252 -13.148  0.00  0.00     0.005 C 
ATOM     64  H29 MOL d         -40.486 -60.180 -13.656  0.00  0.00     0.066 H 
ATOM     65  H30 MOL d         -39.932 -58.855 -12.577  0.00  0.00     0.066 H 
ATOM     66  H31 MOL d         -41.101 -58.510 -13.897  0.00  0.00     0.066 H 
ENDBRANCH  62  63
ENDBRANCH  49  62
ENDBRANCH   9  49
TORSDOF 8
ENDMDL
MODEL 7
REMARK VINA RESULT:      -5.9      1.883      2.541
REMARK  8 active torsions:
REMARK  status: ('A' for Active; 'I' for Inactive)
REMARK       I    between atoms: C25_25  and  N1_1 
REMARK    1  A    between atoms: C3_3  and  N5_5 
REMARK       I    between atoms: N5_5  and  C6_6 
REMARK    2  A    between atoms: C6_6  and  C7_7 
REMARK    3  A    between atoms: C24_24  and  N17_17 
REMARK    4  A    between atoms: N20_20  and  C23_23 
REMARK    5  A    between atoms: C20_32  and  C25_25 
REMARK    6  A    between atoms: C29_29  and  C20_32 
REMARK    7  A    between atoms: C20_32  and  O34_35 
REMARK    8  A    between atoms: O34_35  and  C36_34 
ROOT
ATOM      1  N1  MOL d         -42.471 -46.842  -7.331  0.00  0.00    -0.340 N 
ATOM      2  N2  MOL d         -45.497 -48.434  -6.138  0.00  0.00    -0.278 N 
ATOM      3  C3  MOL d         -44.583 -49.834  -7.618  0.00  0.00     0.160 A 
ATOM      4  N4  MOL d         -45.660 -49.665  -6.829  0.00  0.00    -0.156 NA
ATOM      5  C13 MOL d         -44.320 -47.910  -6.535  0.00  0.00     0.057 A 
ATOM      6  C14 MOL d         -43.707 -48.774  -7.496  0.00  0.00     0.033 A 
ATOM      7  C15 MOL d         -42.419 -48.190  -7.984  0.00  0.00     0.027 C 
ATOM      8  C16 MOL d         -43.516 -46.678  -6.298  0.00  0.00     0.038 C 
ATOM      9  C25 MOL d         -41.653 -45.817  -7.617  0.00  0.00     0.254 C 
ATOM     10  O26 MOL d         -41.740 -44.730  -7.048  0.00  0.00    -0.270 OA
ATOM     11  H1  MOL d         -46.154 -48.020  -5.462  0.00  0.00     0.189 HD
ATOM     12  H7  MOL d         -41.552 -48.775  -7.643  0.00  0.00     0.072 H 
ATOM     13  H8  MOL d         -42.397 -48.111  -9.081  0.00  0.00     0.072 H 
ATOM     14  H9  MOL d         -44.110 -45.768  -6.462  0.00  0.00     0.074 H 
ATOM     15  H10 MOL d         -43.088 -46.661  -5.285  0.00  0.00     0.074 H 
ENDROOT
BRANCH   3  16
ATOM     16  N5  MOL d         -44.499 -50.953  -8.418  0.00  0.00    -0.305 N 
ATOM     17  C6  MOL d         -44.471 -50.966  -9.740  0.00  0.00     0.257 C 
ATOM     18  O8  MOL d         -44.488 -49.969 -10.438  0.00  0.00    -0.267 OA
ATOM     19  H2  MOL d         -44.454 -51.838  -7.955  0.00  0.00     0.170 HD
BRANCH  17  20
ATOM     20  C7  MOL d         -44.397 -52.285 -10.408  0.00  0.00     0.032 A 
ATOM     21  C9  MOL d         -44.753 -53.397  -9.661  0.00  0.00    -0.066 A 
ATOM     22  C10 MOL d         -44.724 -54.660 -10.214  0.00  0.00    -0.056 A 
ATOM     23  H3  MOL d         -45.059 -53.272  -8.629  0.00  0.00     0.085 H 
ATOM     24  C24 MOL d         -44.321 -54.794 -11.524  0.00  0.00     0.030 A 
ATOM     25  H4  MOL d         -45.011 -55.528  -9.631  0.00  0.00     0.086 H 
ATOM     26  C11 MOL d         -43.952 -53.665 -12.280  0.00  0.00    -0.056 A 
ATOM     27  C12 MOL d         -43.991 -52.397 -11.730  0.00  0.00    -0.066 A 
ATOM     28  H5  MOL d         -43.632 -53.792 -13.308  0.00  0.00     0.086 H 
ATOM     29  H6  MOL d         -43.716 -51.523 -12.310  0.00  0.00     0.085 H 
BRANCH  24  30
ATOM     30  N17 MOL d         -44.292 -56.079 -12.091  0.00  0.00    -0.378 N 
ATOM     31  C18 MOL d         -44.851 -57.080 -11.534  0.00  0.00     0.018 C 
ATOM     32  C19 MOL d         -44.147 -58.219 -11.457  0.00  0.00     0.098 C 
ATOM     33  H11 MOL d         -45.771 -57.299 -12.095  0.00  0.00     0.066 H 
ATOM     34  H12 MOL d         -45.111 -56.783 -10.506  0.00  0.00     0.066 H 
ATOM     35  N20 MOL d         -43.036 -58.476 -12.338  0.00  0.00    -0.072 N 
ATOM     36  H13 MOL d         -44.864 -59.039 -11.614  0.00  0.00     0.078 H 
ATOM     37  H14 MOL d         -43.750 -58.270 -10.433  0.00  0.00     0.078 H 
ATOM     38  C21 MOL d         -42.474 -57.245 -12.958  0.00  0.00     0.098 C 
ATOM     39  H15 MOL d         -43.368 -59.076 -13.077  0.00  0.00     0.279 HD
ATOM     40  C22 MOL d         -43.581 -56.273 -13.359  0.00  0.00     0.018 C 
ATOM     41  H16 MOL d         -41.900 -57.524 -13.854  0.00  0.00     0.078 H 
ATOM     42  H17 MOL d         -41.807 -56.751 -12.234  0.00  0.00     0.078 H 
ATOM     43  H18 MOL d         -43.166 -55.326 -13.732  0.00  0.00     0.066 H 
ATOM     44  H19 MOL d         -44.239 -56.711 -14.123  0.00  0.00     0.066 H 
BRANCH  35  45
ATOM     45  C23 MOL d         -41.943 -59.166 -11.626  0.00  0.00     0.066 C 
ATOM     46  H20 MOL d         -40.995 -58.639 -11.810  0.00  0.00     0.068 H 
ATOM     47  H21 MOL d         -41.863 -60.201 -11.991  0.00  0.00     0.068 H 
ATOM     48  H22 MOL d         -42.155 -59.174 -10.547  0.00  0.00     0.068 H 
ENDBRANCH  35  45
ENDBRANCH  24  30
ENDBRANCH  17  20
ENDBRANCH   3  16
BRANCH   9  49
ATOM     49  C20 MOL d         -40.609 -46.002  -8.675  0.00  0.00     0.140 C 
ATOM     50  H27 MOL d         -40.300 -47.057  -8.712  0.00  0.00     0.106 H 
BRANCH  49  51
ATOM     51  C29 MOL d         -41.221 -45.632  -9.989  0.00  0.00    -0.020 A 
ATOM     52  C27 MOL d         -40.387 -45.248 -11.066  0.00  0.00    -0.074 A 
ATOM     53  C28 MOL d         -40.945 -44.930 -12.303  0.00  0.00    -0.082 A 
ATOM     54  H23 MOL d         -39.313 -45.201 -10.928  0.00  0.00     0.084 H 
ATOM     55  C31 MOL d         -42.345 -44.985 -12.454  0.00  0.00    -0.083 A 
ATOM     56  H24 MOL d         -40.312 -44.645 -13.136  0.00  0.00     0.083 H 
ATOM     57  C35 MOL d         -43.177 -45.357 -11.393  0.00  0.00    -0.082 A 
ATOM     58  H25 MOL d         -42.786 -44.735 -13.412  0.00  0.00     0.083 H 
ATOM     59  C33 MOL d         -42.621 -45.669 -10.162  0.00  0.00    -0.074 A 
ATOM     60  H28 MOL d         -44.251 -45.401 -11.532  0.00  0.00     0.083 H 
ATOM     61  H26 MOL d         -43.262 -45.944  -9.333  0.00  0.00     0.084 H 
ENDBRANCH  49  51
BRANCH  49  62
ATOM     62  O34 MOL d         -39.472 -45.205  -8.336  0.00  0.00    -0.377 OA
BRANCH  62  63
ATOM     63  C36 MOL d         -39.652 -43.791  -8.548  0.00  0.00     0.005 C 
ATOM     64  H29 MOL d         -40.469 -43.424  -7.909  0.00  0.00     0.066 H 
ATOM     65  H30 MOL d         -39.902 -43.606  -9.604  0.00  0.00     0.066 H 
ATOM     66  H31 MOL d         -38.722 -43.260  -8.294  0.00  0.00     0.066 H 
ENDBRANCH  62  63
ENDBRANCH  49  62
ENDBRANCH   9  49
TORSDOF 8
ENDMDL
MODEL 8
REMARK VINA RESULT:      -5.7      3.166     10.078
REMARK  8 active torsions:
REMARK  status: ('A' for Active; 'I' for Inactive)
REMARK       I    between atoms: C25_25  and  N1_1 
REMARK    1  A    between atoms: C3_3  and  N5_5 
REMARK       I    between atoms: N5_5  and  C6_6 
REMARK    2  A    between atoms: C6_6  and  C7_7 
REMARK    3  A    between atoms: C24_24  and  N17_17 
REMARK    4  A    between atoms: N20_20  and  C23_23 
REMARK    5  A    between atoms: C20_32  and  C25_25 
REMARK    6  A    between atoms: C29_29  and  C20_32 
REMARK    7  A    between atoms: C20_32  and  O34_35 
REMARK    8  A    between atoms: O34_35  and  C36_34 
ROOT
ATOM      1  N1  MOL d         -45.923 -57.333 -11.627  0.00  0.00    -0.340 N 
ATOM      2  N2  MOL d         -44.787 -56.545  -8.280  0.00  0.00    -0.278 N 
ATOM      3  C3  MOL d         -44.721 -54.638  -9.438  0.00  0.00     0.160 A 
ATOM      4  N4  MOL d         -44.428 -55.171  -8.238  0.00  0.00    -0.156 NA
ATOM      5  C13 MOL d         -45.291 -56.786  -9.507  0.00  0.00     0.057 A 
ATOM      6  C14 MOL d         -45.254 -55.588 -10.287  0.00  0.00     0.033 A 
ATOM      7  C15 MOL d         -45.767 -55.843 -11.669  0.00  0.00     0.027 C 
ATOM      8  C16 MOL d         -45.816 -57.943 -10.285  0.00  0.00     0.038 C 
ATOM      9  C25 MOL d         -46.150 -58.113 -12.696  0.00  0.00     0.254 C 
ATOM     10  O26 MOL d         -46.271 -59.333 -12.603  0.00  0.00    -0.270 OA
ATOM     11  H1  MOL d         -44.682 -57.229  -7.517  0.00  0.00     0.189 HD
ATOM     12  H7  MOL d         -46.728 -55.337 -11.846  0.00  0.00     0.072 H 
ATOM     13  H8  MOL d         -45.043 -55.531 -12.436  0.00  0.00     0.072 H 
ATOM     14  H9  MOL d         -45.114 -58.790 -10.278  0.00  0.00     0.074 H 
ATOM     15  H10 MOL d         -46.794 -58.275  -9.909  0.00  0.00     0.074 H 
ENDROOT
BRANCH   3  16
ATOM     16  N5  MOL d         -44.451 -53.307  -9.672  0.00  0.00    -0.305 N 
ATOM     17  C6  MOL d         -43.971 -52.794 -10.793  0.00  0.00     0.257 C 
ATOM     18  O8  MOL d         -43.727 -53.440 -11.795  0.00  0.00    -0.267 OA
ATOM     19  H2  MOL d         -44.635 -52.669  -8.924  0.00  0.00     0.170 HD
BRANCH  17  20
ATOM     20  C7  MOL d         -43.734 -51.334 -10.828  0.00  0.00     0.032 A 
ATOM     21  C9  MOL d         -42.418 -50.901 -10.781  0.00  0.00    -0.066 A 
ATOM     22  C10 MOL d         -42.112 -49.557 -10.822  0.00  0.00    -0.056 A 
ATOM     23  H3  MOL d         -41.619 -51.629 -10.709  0.00  0.00     0.085 H 
ATOM     24  C24 MOL d         -43.147 -48.651 -10.902  0.00  0.00     0.030 A 
ATOM     25  H4  MOL d         -41.082 -49.221 -10.794  0.00  0.00     0.086 H 
ATOM     26  C11 MOL d         -44.484 -49.091 -10.943  0.00  0.00    -0.056 A 
ATOM     27  C12 MOL d         -44.791 -50.439 -10.912  0.00  0.00    -0.066 A 
ATOM     28  H5  MOL d         -45.284 -48.362 -11.000  0.00  0.00     0.086 H 
ATOM     29  H6  MOL d         -45.818 -50.783 -10.951  0.00  0.00     0.085 H 
BRANCH  24  30
ATOM     30  N17 MOL d         -42.839 -47.281 -10.947  0.00  0.00    -0.378 N 
ATOM     31  C18 MOL d         -41.929 -46.814 -11.708  0.00  0.00     0.018 C 
ATOM     32  C19 MOL d         -41.064 -45.939 -11.174  0.00  0.00     0.098 C 
ATOM     33  H11 MOL d         -42.428 -46.312 -12.549  0.00  0.00     0.066 H 
ATOM     34  H12 MOL d         -41.345 -47.667 -12.085  0.00  0.00     0.066 H 
ATOM     35  N20 MOL d         -41.385 -45.198  -9.980  0.00  0.00    -0.072 N 
ATOM     36  H13 MOL d         -40.854 -45.194 -11.955  0.00  0.00     0.078 H 
ATOM     37  H14 MOL d         -40.148 -46.505 -10.951  0.00  0.00     0.078 H 
ATOM     38  C21 MOL d         -42.479 -45.813  -9.177  0.00  0.00     0.098 C 
ATOM     39  H15 MOL d         -41.685 -44.279 -10.266  0.00  0.00     0.279 HD
ATOM     40  C22 MOL d         -43.583 -46.364 -10.078  0.00  0.00     0.018 C 
ATOM     41  H16 MOL d         -42.907 -45.050  -8.511  0.00  0.00     0.078 H 
ATOM     42  H17 MOL d         -42.063 -46.635  -8.575  0.00  0.00     0.078 H 
ATOM     43  H18 MOL d         -44.345 -46.898  -9.493  0.00  0.00     0.066 H 
ATOM     44  H19 MOL d         -44.061 -45.562 -10.658  0.00  0.00     0.066 H 
BRANCH  35  45
ATOM     45  C23 MOL d         -40.204 -45.059  -9.107  0.00  0.00     0.066 C 
ATOM     46  H20 MOL d         -40.509 -45.172  -8.056  0.00  0.00     0.068 H 
ATOM     47  H21 MOL d         -39.755 -44.066  -9.253  0.00  0.00     0.068 H 
ATOM     48  H22 MOL d         -39.467 -45.835  -9.361  0.00  0.00     0.068 H 
ENDBRANCH  35  45
ENDBRANCH  24  30
ENDBRANCH  17  20
ENDBRANCH   3  16
BRANCH   9  49
ATOM     49  C20 MOL d         -46.243 -57.473 -14.047  0.00  0.00     0.140 C 
ATOM     50  H27 MOL d         -47.029 -56.703 -14.040  0.00  0.00     0.106 H 
BRANCH  49  51
ATOM     51  C29 MOL d         -44.929 -56.820 -14.334  0.00  0.00    -0.020 A 
ATOM     52  C27 MOL d         -43.733 -57.429 -13.886  0.00  0.00    -0.074 A 
ATOM     53  C28 MOL d         -42.500 -56.845 -14.174  0.00  0.00    -0.082 A 
ATOM     54  H23 MOL d         -43.775 -58.351 -13.317  0.00  0.00     0.084 H 
ATOM     55  C31 MOL d         -42.471 -55.639 -14.903  0.00  0.00    -0.083 A 
ATOM     56  H24 MOL d         -41.579 -57.310 -13.844  0.00  0.00     0.083 H 
ATOM     57  C35 MOL d         -43.650 -55.027 -15.344  0.00  0.00    -0.082 A 
ATOM     58  H25 MOL d         -41.517 -55.176 -15.127  0.00  0.00     0.083 H 
ATOM     59  C33 MOL d         -44.874 -55.608 -15.054  0.00  0.00    -0.074 A 
ATOM     60  H28 MOL d         -43.605 -54.104 -15.910  0.00  0.00     0.083 H 
ATOM     61  H26 MOL d         -45.790 -55.130 -15.380  0.00  0.00     0.084 H 
ENDBRANCH  49  51
BRANCH  49  62
ATOM     62  O34 MOL d         -46.596 -58.478 -15.001  0.00  0.00    -0.377 OA
BRANCH  62  63
ATOM     63  C36 MOL d         -45.474 -59.082 -15.673  0.00  0.00     0.005 C 
ATOM     64  H29 MOL d         -45.266 -58.534 -16.604  0.00  0.00     0.066 H 
ATOM     65  H30 MOL d         -45.708 -60.130 -15.909  0.00  0.00     0.066 H 
ATOM     66  H31 MOL d         -44.589 -59.042 -15.020  0.00  0.00     0.066 H 
ENDBRANCH  62  63
ENDBRANCH  49  62
ENDBRANCH   9  49
TORSDOF 8
ENDMDL
MODEL 9
REMARK VINA RESULT:      -5.0      3.052     10.213
REMARK  8 active torsions:
REMARK  status: ('A' for Active; 'I' for Inactive)
REMARK       I    between atoms: C25_25  and  N1_1 
REMARK    1  A    between atoms: C3_3  and  N5_5 
REMARK       I    between atoms: N5_5  and  C6_6 
REMARK    2  A    between atoms: C6_6  and  C7_7 
REMARK    3  A    between atoms: C24_24  and  N17_17 
REMARK    4  A    between atoms: N20_20  and  C23_23 
REMARK    5  A    between atoms: C20_32  and  C25_25 
REMARK    6  A    between atoms: C29_29  and  C20_32 
REMARK    7  A    between atoms: C20_32  and  O34_35 
REMARK    8  A    between atoms: O34_35  and  C36_34 
ROOT
ATOM      1  N1  MOL d         -45.443 -57.296 -11.873  0.00  0.00    -0.340 N 
ATOM      2  N2  MOL d         -44.219 -57.093  -8.470  0.00  0.00    -0.278 N 
ATOM      3  C3  MOL d         -44.468 -54.991  -9.182  0.00  0.00     0.160 A 
ATOM      4  N4  MOL d         -44.038 -55.723  -8.138  0.00  0.00    -0.156 NA
ATOM      5  C13 MOL d         -44.760 -57.133  -9.704  0.00  0.00     0.057 A 
ATOM      6  C14 MOL d         -44.924 -55.803 -10.202  0.00  0.00     0.033 A 
ATOM      7  C15 MOL d         -45.483 -55.824 -11.590  0.00  0.00     0.027 C 
ATOM      8  C16 MOL d         -45.178 -58.158 -10.701  0.00  0.00     0.038 C 
ATOM      9  C25 MOL d         -45.632 -57.852 -13.079  0.00  0.00     0.254 C 
ATOM     10  O26 MOL d         -45.590 -59.069 -13.254  0.00  0.00    -0.270 OA
ATOM     11  H1  MOL d         -43.982 -57.902  -7.880  0.00  0.00     0.189 HD
ATOM     12  H7  MOL d         -46.510 -55.430 -11.622  0.00  0.00     0.072 H 
ATOM     13  H8  MOL d         -44.852 -55.258 -12.291  0.00  0.00     0.072 H 
ATOM     14  H9  MOL d         -44.374 -58.881 -10.902  0.00  0.00     0.074 H 
ATOM     15  H10 MOL d         -46.082 -58.695 -10.378  0.00  0.00     0.074 H 
ENDROOT
BRANCH   3  16
ATOM     16  N5  MOL d         -44.386 -53.617  -9.125  0.00  0.00    -0.305 N 
ATOM     17  C6  MOL d         -45.257 -52.807  -8.547  0.00  0.00     0.257 C 
ATOM     18  O8  MOL d         -46.251 -53.178  -7.952  0.00  0.00    -0.267 OA
ATOM     19  H2  MOL d         -43.593 -53.193  -9.562  0.00  0.00     0.170 HD
BRANCH  17  20
ATOM     20  C7  MOL d         -44.988 -51.353  -8.617  0.00  0.00     0.032 A 
ATOM     21  C9  MOL d         -44.315 -50.778  -7.550  0.00  0.00    -0.066 A 
ATOM     22  C10 MOL d         -44.014 -49.433  -7.544  0.00  0.00    -0.056 A 
ATOM     23  H3  MOL d         -44.023 -51.395  -6.708  0.00  0.00     0.085 H 
ATOM     24  C24 MOL d         -44.406 -48.669  -8.621  0.00  0.00     0.030 A 
ATOM     25  H4  MOL d         -43.480 -48.987  -6.713  0.00  0.00     0.086 H 
ATOM     26  C11 MOL d         -45.096 -49.251  -9.701  0.00  0.00    -0.056 A 
ATOM     27  C12 MOL d         -45.389 -50.603  -9.712  0.00  0.00    -0.066 A 
ATOM     28  H5  MOL d         -45.401 -48.631 -10.536  0.00  0.00     0.086 H 
ATOM     29  H6  MOL d         -45.912 -51.058 -10.545  0.00  0.00     0.085 H 
BRANCH  24  30
ATOM     30  N17 MOL d         -44.099 -47.297  -8.620  0.00  0.00    -0.378 N 
ATOM     31  C18 MOL d         -43.989 -46.625  -9.698  0.00  0.00     0.018 C 
ATOM     32  C19 MOL d         -42.928 -45.812  -9.816  0.00  0.00     0.098 C 
ATOM     33  H11 MOL d         -44.892 -46.005  -9.793  0.00  0.00     0.066 H 
ATOM     34  H12 MOL d         -43.948 -47.343 -10.531  0.00  0.00     0.066 H 
ATOM     35  N20 MOL d         -42.207 -45.346  -8.658  0.00  0.00    -0.072 N 
ATOM     36  H13 MOL d         -43.282 -44.915 -10.343  0.00  0.00     0.078 H 
ATOM     37  H14 MOL d         -42.198 -46.343 -10.443  0.00  0.00     0.078 H 
ATOM     38  C21 MOL d         -42.425 -46.184  -7.446  0.00  0.00     0.098 C 
ATOM     39  H15 MOL d         -42.530 -44.413  -8.456  0.00  0.00     0.279 HD
ATOM     40  C22 MOL d         -43.883 -46.626  -7.335  0.00  0.00     0.018 C 
ATOM     41  H16 MOL d         -42.158 -45.600  -6.553  0.00  0.00     0.078 H 
ATOM     42  H17 MOL d         -41.783 -47.076  -7.507  0.00  0.00     0.078 H 
ATOM     43  H18 MOL d         -44.027 -47.319  -6.493  0.00  0.00     0.066 H 
ATOM     44  H19 MOL d         -44.553 -45.762  -7.218  0.00  0.00     0.066 H 
BRANCH  35  45
ATOM     45  C23 MOL d         -40.756 -45.296  -8.921  0.00  0.00     0.066 C 
ATOM     46  H20 MOL d         -40.532 -45.844  -9.848  0.00  0.00     0.068 H 
ATOM     47  H21 MOL d         -40.215 -45.758  -8.082  0.00  0.00     0.068 H 
ATOM     48  H22 MOL d         -40.439 -44.248  -9.028  0.00  0.00     0.068 H 
ENDBRANCH  35  45
ENDBRANCH  24  30
ENDBRANCH  17  20
ENDBRANCH   3  16
BRANCH   9  49
ATOM     49  C20 MOL d         -45.887 -56.958 -14.253  0.00  0.00     0.140 C 
ATOM     50  H27 MOL d         -46.508 -56.104 -13.942  0.00  0.00     0.106 H 
BRANCH  49  51
ATOM     51  C29 MOL d         -44.566 -56.445 -14.732  0.00  0.00    -0.020 A 
ATOM     52  C27 MOL d         -43.589 -57.357 -15.196  0.00  0.00    -0.074 A 
ATOM     53  C28 MOL d         -42.366 -56.889 -15.673  0.00  0.00    -0.082 A 
ATOM     54  H23 MOL d         -43.792 -58.422 -15.180  0.00  0.00     0.084 H 
ATOM     55  C31 MOL d         -42.120 -55.501 -15.671  0.00  0.00    -0.083 A 
ATOM     56  H24 MOL d         -41.616 -57.580 -16.039  0.00  0.00     0.083 H 
ATOM     57  C35 MOL d         -43.078 -54.593 -15.208  0.00  0.00    -0.082 A 
ATOM     58  H25 MOL d         -41.169 -55.130 -16.036  0.00  0.00     0.083 H 
ATOM     59  C33 MOL d         -44.292 -55.061 -14.731  0.00  0.00    -0.074 A 
ATOM     60  H28 MOL d         -42.872 -53.529 -15.222  0.00  0.00     0.083 H 
ATOM     61  H26 MOL d         -45.032 -54.363 -14.357  0.00  0.00     0.084 H 
ENDBRANCH  49  51
BRANCH  49  62
ATOM     62  O34 MOL d         -46.598 -57.702 -15.244  0.00  0.00    -0.377 OA
BRANCH  62  63
ATOM     63  C36 MOL d         -46.373 -59.125 -15.197  0.00  0.00     0.005 C 
ATOM     64  H29 MOL d         -45.486 -59.335 -14.581  0.00  0.00     0.066 H 
ATOM     65  H30 MOL d         -46.209 -59.505 -16.216  0.00  0.00     0.066 H 
ATOM     66  H31 MOL d         -47.251 -59.622 -14.757  0.00  0.00     0.066 H 
ENDBRANCH  62  63
ENDBRANCH  49  62
ENDBRANCH   9  49
TORSDOF 8
ENDMDL
MODEL 10
REMARK VINA RESULT:      -4.0      1.548      2.172
REMARK  8 active torsions:
REMARK  status: ('A' for Active; 'I' for Inactive)
REMARK       I    between atoms: C25_25  and  N1_1 
REMARK    1  A    between atoms: C3_3  and  N5_5 
REMARK       I    between atoms: N5_5  and  C6_6 
REMARK    2  A    between atoms: C6_6  and  C7_7 
REMARK    3  A    between atoms: C24_24  and  N17_17 
REMARK    4  A    between atoms: N20_20  and  C23_23 
REMARK    5  A    between atoms: C20_32  and  C25_25 
REMARK    6  A    between atoms: C29_29  and  C20_32 
REMARK    7  A    between atoms: C20_32  and  O34_35 
REMARK    8  A    between atoms: O34_35  and  C36_34 
ROOT
ATOM      1  N1  MOL d         -42.314 -47.291  -8.766  0.00  0.00    -0.340 N 
ATOM      2  N2  MOL d         -43.143 -49.421  -5.957  0.00  0.00    -0.278 N 
ATOM      3  C3  MOL d         -43.444 -50.650  -7.796  0.00  0.00     0.160 A 
ATOM      4  N4  MOL d         -43.578 -50.678  -6.458  0.00  0.00    -0.156 NA
ATOM      5  C13 MOL d         -42.756 -48.685  -7.018  0.00  0.00     0.057 A 
ATOM      6  C14 MOL d         -42.946 -49.434  -8.220  0.00  0.00     0.033 A 
ATOM      7  C15 MOL d         -42.564 -48.619  -9.416  0.00  0.00     0.027 C 
ATOM      8  C16 MOL d         -42.245 -47.312  -7.289  0.00  0.00     0.038 C 
ATOM      9  C25 MOL d         -42.153 -46.132  -9.424  0.00  0.00     0.254 C 
ATOM     10  O26 MOL d         -41.949 -45.070  -8.839  0.00  0.00    -0.270 OA
ATOM     11  H1  MOL d         -43.127 -49.128  -4.970  0.00  0.00     0.189 HD
ATOM     12  H7  MOL d         -41.659 -49.011  -9.903  0.00  0.00     0.072 H 
ATOM     13  H8  MOL d         -43.381 -48.566 -10.150  0.00  0.00     0.072 H 
ATOM     14  H9  MOL d         -42.890 -46.542  -6.842  0.00  0.00     0.074 H 
ATOM     15  H10 MOL d         -41.214 -47.182  -6.929  0.00  0.00     0.074 H 
ENDROOT
BRANCH   3  16
ATOM     16  N5  MOL d         -43.817 -51.751  -8.537  0.00  0.00    -0.305 N 
ATOM     17  C6  MOL d         -44.903 -51.856  -9.284  0.00  0.00     0.257 C 
ATOM     18  O8  MOL d         -45.717 -50.966  -9.442  0.00  0.00    -0.267 OA
ATOM     19  H2  MOL d         -43.209 -52.544  -8.506  0.00  0.00     0.170 HD
BRANCH  17  20
ATOM     20  C7  MOL d         -45.126 -53.139  -9.987  0.00  0.00     0.032 A 
ATOM     21  C9  MOL d         -45.419 -53.081 -11.340  0.00  0.00    -0.066 A 
ATOM     22  C10 MOL d         -45.627 -54.232 -12.071  0.00  0.00    -0.056 A 
ATOM     23  H3  MOL d         -45.486 -52.117 -11.832  0.00  0.00     0.085 H 
ATOM     24  C24 MOL d         -45.548 -55.444 -11.421  0.00  0.00     0.030 A 
ATOM     25  H4  MOL d         -45.848 -54.185 -13.131  0.00  0.00     0.086 H 
ATOM     26  C11 MOL d         -45.257 -55.503 -10.045  0.00  0.00    -0.056 A 
ATOM     27  C12 MOL d         -45.038 -54.349  -9.314  0.00  0.00    -0.066 A 
ATOM     28  H5  MOL d         -45.204 -56.466  -9.551  0.00  0.00     0.086 H 
ATOM     29  H6  MOL d         -44.806 -54.389  -8.256  0.00  0.00     0.085 H 
BRANCH  24  30
ATOM     30  N17 MOL d         -45.756 -56.620 -12.162  0.00  0.00    -0.378 N 
ATOM     31  C18 MOL d         -45.651 -57.779 -11.641  0.00  0.00     0.018 C 
ATOM     32  C19 MOL d         -44.952 -58.701 -12.319  0.00  0.00     0.098 C 
ATOM     33  H11 MOL d         -46.669 -58.172 -11.504  0.00  0.00     0.066 H 
ATOM     34  H12 MOL d         -45.170 -57.656 -10.659  0.00  0.00     0.066 H 
ATOM     35  N20 MOL d         -44.727 -58.580 -13.737  0.00  0.00    -0.072 N 
ATOM     36  H13 MOL d         -45.472 -59.658 -12.168  0.00  0.00     0.078 H 
ATOM     37  H14 MOL d         -43.959 -58.745 -11.850  0.00  0.00     0.078 H 
ATOM     38  C21 MOL d         -44.901 -57.192 -14.250  0.00  0.00     0.098 C 
ATOM     39  H15 MOL d         -45.397 -59.172 -14.202  0.00  0.00     0.279 HD
ATOM     40  C22 MOL d         -46.092 -56.504 -13.585  0.00  0.00     0.018 C 
ATOM     41  H16 MOL d         -45.070 -57.229 -15.336  0.00  0.00     0.078 H 
ATOM     42  H17 MOL d         -43.989 -56.615 -14.039  0.00  0.00     0.078 H 
ATOM     43  H18 MOL d         -46.167 -55.451 -13.893  0.00  0.00     0.066 H 
ATOM     44  H19 MOL d         -47.033 -57.022 -13.817  0.00  0.00     0.066 H 
BRANCH  35  45
ATOM     45  C23 MOL d         -43.369 -59.030 -14.100  0.00  0.00     0.066 C 
ATOM     46  H20 MOL d         -43.264 -59.033 -15.195  0.00  0.00     0.068 H 
ATOM     47  H21 MOL d         -43.204 -60.047 -13.714  0.00  0.00     0.068 H 
ATOM     48  H22 MOL d         -42.627 -58.347 -13.662  0.00  0.00     0.068 H 
ENDBRANCH  35  45
ENDBRANCH  24  30
ENDBRANCH  17  20
ENDBRANCH   3  16
BRANCH   9  49
ATOM     49  C20 MOL d         -42.239 -46.134 -10.919  0.00  0.00     0.140 C 
ATOM     50  H27 MOL d         -42.146 -45.106 -11.298  0.00  0.00     0.106 H 
BRANCH  49  51
ATOM     51  C29 MOL d         -41.096 -46.946 -11.440  0.00  0.00    -0.020 A 
ATOM     52  C27 MOL d         -41.346 -48.202 -12.041  0.00  0.00    -0.074 A 
ATOM     53  C28 MOL d         -40.291 -48.953 -12.558  0.00  0.00    -0.082 A 
ATOM     54  H23 MOL d         -42.360 -48.582 -12.099  0.00  0.00     0.084 H 
ATOM     55  C31 MOL d         -38.980 -48.445 -12.458  0.00  0.00    -0.083 A 
ATOM     56  H24 MOL d         -40.476 -49.912 -13.028  0.00  0.00     0.083 H 
ATOM     57  C35 MOL d         -38.724 -47.207 -11.860  0.00  0.00    -0.082 A 
ATOM     58  H25 MOL d         -38.154 -49.026 -12.853  0.00  0.00     0.083 H 
ATOM     59  C33 MOL d         -39.773 -46.464 -11.344  0.00  0.00    -0.074 A 
ATOM     60  H28 MOL d         -37.709 -46.831 -11.800  0.00  0.00     0.083 H 
ATOM     61  H26 MOL d         -39.578 -45.511 -10.866  0.00  0.00     0.084 H 
ENDBRANCH  49  51
BRANCH  49  62
ATOM     62  O34 MOL d         -43.517 -46.648 -11.299  0.00  0.00    -0.377 OA
BRANCH  62  63
ATOM     63  C36 MOL d         -43.475 -47.626 -12.357  0.00  0.00     0.005 C 
ATOM     64  H29 MOL d         -44.459 -47.679 -12.847  0.00  0.00     0.066 H 
ATOM     65  H30 MOL d         -43.222 -48.611 -11.937  0.00  0.00     0.066 H 
ATOM     66  H31 MOL d         -42.713 -47.336 -13.096  0.00  0.00     0.066 H 
ENDBRANCH  62  63
ENDBRANCH  49  62
ENDBRANCH   9  49
TORSDOF 8
ENDMDL
