MODEL 1
REMARK VINA RESULT:      -7.3      0.000      0.000
REMARK  13 active torsions:
REMARK  status: ('A' for Active; 'I' for Inactive)
REMARK    1  A    between atoms: C_1  and  CH3_3 
REMARK       I    between atoms: N_4  and  C_1 
REMARK    2  A    between atoms: CA_5  and  N_4 
REMARK    3  A    between atoms: C_6  and  CA_5 
REMARK    4  A    between atoms: CA_5  and  CB_8 
REMARK       I    between atoms: N_26  and  C_6 
REMARK    5  A    between atoms: CB_8  and  CG_9 
REMARK    6  A    between atoms: CZ_14  and  OH_15 
REMARK    7  A    between atoms: OH_15  and  P_16 
REMARK    8  A    between atoms: CA_28  and  N_26 
REMARK    9  A    between atoms: C_27  and  CA_28 
REMARK       I    between atoms: C_27  and  N_29 
REMARK   10  A    between atoms: N_29  and  CA_30 
REMARK   11  A    between atoms: CA_30  and  C_31 
REMARK   12  A    between atoms: CA_30  and  CB_33 
REMARK       I    between atoms: C_31  and  N_37 
REMARK   13  A    between atoms: CB_33  and  CG_34 
REMARK       I    between atoms: CG_34  and  ND2_36 
ROOT
ATOM      1  CD  ACE d           3.952  -8.086   3.262  0.00  0.00    -0.065 C 
ATOM      2  CG  ACE d           5.093  -9.102   3.533  0.00  0.00    -0.062 C 
ATOM      3  CE  ACE d           4.460  -6.996   2.300  0.00  0.00    -0.062 C 
ATOM      4  CB  ACE d           6.371  -8.428   4.132  0.00  0.00    -0.033 C 
ATOM      5  CH  ACE d           5.755  -6.352   2.831  0.00  0.00    -0.033 C 
ATOM      6  CA  ACE d           6.897  -7.316   3.206  0.00  0.00     0.114 C 
ATOM      7  H12 ACE d           3.638  -7.624   4.209  0.00  0.00     0.033 H 
ATOM      8  H13 ACE d           3.096  -8.607   2.807  0.00  0.00     0.033 H 
ATOM      9  H14 ACE d           5.363  -9.589   2.585  0.00  0.00     0.033 H 
ATOM     10  H15 ACE d           4.728  -9.860   4.243  0.00  0.00     0.033 H 
ATOM     11  H16 ACE d           3.689  -6.219   2.195  0.00  0.00     0.033 H 
ATOM     12  H17 ACE d           4.661  -7.449   1.317  0.00  0.00     0.033 H 
ATOM     13  H18 ACE d           7.154  -9.191   4.259  0.00  0.00     0.037 H 
ATOM     14  H19 ACE d           6.122  -7.992   5.112  0.00  0.00     0.037 H 
ATOM     15  H20 ACE d           5.496  -5.774   3.730  0.00  0.00     0.037 H 
ATOM     16  H21 ACE d           6.133  -5.671   2.054  0.00  0.00     0.037 H 
ENDROOT
BRANCH   6  17
ATOM     17  N   ACE d           7.386  -7.876   1.941  0.00  0.00    -0.341 N 
ATOM     18  C   ACE d           8.027  -7.161   1.024  0.00  0.00     0.241 C 
ATOM     19  O   ACE d           8.306  -5.978   1.149  0.00  0.00    -0.271 OA
ATOM     20  H22 ACE d           7.229  -8.846   1.760  0.00  0.00     0.163 HD
BRANCH  18  21
ATOM     21  CA  ACE d           8.412  -7.916  -0.240  0.00  0.00     0.093 C 
ATOM     22  H5  ACE d           7.824  -8.842  -0.317  0.00  0.00     0.088 H 
BRANCH  21  23
ATOM     23  N   ACE d           8.140  -7.036  -1.408  0.00  0.00    -0.348 N 
ATOM     24  C   ACE d           7.404  -7.478  -2.443  0.00  0.00     0.214 C 
ATOM     25  O   ACE d           6.876  -8.596  -2.488  0.00  0.00    -0.274 OA
ATOM     26  H4  ACE d           8.508  -6.106  -1.423  0.00  0.00     0.163 HD
BRANCH  24  27
ATOM     27  CH3 ACE d           7.215  -6.490  -3.621  0.00  0.00    -0.003 C 
ATOM     28  H1  ACE d           7.753  -5.555  -3.406  0.00  0.00     0.040 H 
ATOM     29  H2  ACE d           6.145  -6.276  -3.752  0.00  0.00     0.040 H 
ATOM     30  H3  ACE d           7.614  -6.939  -4.543  0.00  0.00     0.040 H 
ENDBRANCH  24  27
ENDBRANCH  21  23
BRANCH  21  31
ATOM     31  CB  ACE d           9.945  -8.259  -0.218  0.00  0.00    -0.014 C 
ATOM     32  H6  ACE d          10.162  -8.891   0.655  0.00  0.00     0.043 H 
ATOM     33  H7  ACE d          10.523  -7.327  -0.149  0.00  0.00     0.043 H 
BRANCH  31  34
ATOM     34  CG  ACE d          10.340  -9.004  -1.489  0.00  0.00    -0.056 A 
ATOM     35  CD1 ACE d          10.847  -8.266  -2.542  0.00  0.00    -0.074 A 
ATOM     36  CE1 ACE d          11.123  -8.925  -3.741  0.00  0.00    -0.050 A 
ATOM     37  H8  ACE d          11.025  -7.202  -2.440  0.00  0.00     0.084 H 
ATOM     38  CZ  ACE d          10.923 -10.318  -3.854  0.00  0.00     0.082 A 
ATOM     39  H10 ACE d          11.495  -8.363  -4.590  0.00  0.00     0.087 H 
ATOM     40  CE2 ACE d          10.407 -11.066  -2.806  0.00  0.00    -0.050 A 
ATOM     41  CD2 ACE d          10.142 -10.411  -1.579  0.00  0.00    -0.074 A 
ATOM     42  H11 ACE d          10.211 -12.126  -2.924  0.00  0.00     0.087 H 
ATOM     43  H9  ACE d           9.793 -10.972  -0.721  0.00  0.00     0.084 H 
BRANCH  38  44
ATOM     44  OH  ACE d          11.248 -10.797  -5.105  0.00  0.00    -0.240 OA
BRANCH  44  45
ATOM     45  P   ACE d          10.915 -12.334  -5.611  0.00  0.00     0.427 P 
ATOM     46  O1P ACE d          11.107 -12.220  -7.174  0.00  0.00    -0.617 OA
ATOM     47  O2P ACE d          11.855 -13.317  -5.060  0.00  0.00    -0.617 OA
ATOM     48  O3P ACE d           9.483 -12.580  -5.331  0.00  0.00    -0.617 OA
ENDBRANCH  44  45
ENDBRANCH  38  44
ENDBRANCH  31  34
ENDBRANCH  21  31
ENDBRANCH  18  21
ENDBRANCH   6  17
BRANCH   6  49
ATOM     49  C   ACE d           8.088  -6.637   3.945  0.00  0.00     0.246 C 
ATOM     50  O   ACE d           7.955  -5.622   4.694  0.00  0.00    -0.271 OA
ATOM     51  N   ACE d           9.258  -7.302   3.826  0.00  0.00    -0.345 N 
ATOM     52  H23 ACE d           9.301  -8.125   3.260  0.00  0.00     0.163 HD
BRANCH  51  53
ATOM     53  CA  ACE d          10.472  -6.836   4.515  0.00  0.00     0.097 C 
ATOM     54  H24 ACE d          10.156  -6.134   5.301  0.00  0.00     0.088 H 
BRANCH  53  55
ATOM     55  C   ACE d          11.415  -6.069   3.595  0.00  0.00     0.238 C 
ATOM     56  O   ACE d          12.574  -5.894   3.927  0.00  0.00    -0.271 OA
ATOM     57  N   ACE d          10.910  -5.502   2.518  0.00  0.00    -0.368 N 
ATOM     58  H29 ACE d          11.503  -4.992   1.895  0.00  0.00     0.159 HD
ATOM     59  H30 ACE d           9.932  -5.582   2.323  0.00  0.00     0.159 HD
ENDBRANCH  53  55
BRANCH  53  60
ATOM     60  CB  ACE d          11.157  -8.043   5.216  0.00  0.00     0.036 C 
ATOM     61  H25 ACE d          10.419  -8.551   5.854  0.00  0.00     0.051 H 
ATOM     62  H26 ACE d          11.985  -7.672   5.838  0.00  0.00     0.051 H 
BRANCH  60  63
ATOM     63  CG  ACE d          11.718  -9.062   4.184  0.00  0.00     0.217 C 
ATOM     64  OD1 ACE d          11.228  -9.115   3.031  0.00  0.00    -0.274 OA
ATOM     65  ND2 ACE d          12.711  -9.821   4.623  0.00  0.00    -0.370 N 
ATOM     66  H27 ACE d          13.125 -10.502   4.019  0.00  0.00     0.159 HD
ATOM     67  H28 ACE d          13.045  -9.713   5.560  0.00  0.00     0.159 HD
ENDBRANCH  60  63
ENDBRANCH  53  60
ENDBRANCH  51  53
ENDBRANCH   6  49
TORSDOF 13
ENDMDL
