MODEL 1
REMARK VINA RESULT:      -5.9      0.000      0.000
REMARK  13 active torsions:
REMARK  status: ('A' for Active; 'I' for Inactive)
REMARK    1  A    between atoms: C_1  and  CH3_3 
REMARK       I    between atoms: N_4  and  C_1 
REMARK    2  A    between atoms: CA_5  and  N_4 
REMARK    3  A    between atoms: C_6  and  CA_5 
REMARK    4  A    between atoms: CA_5  and  CB_8 
REMARK       I    between atoms: N_26  and  C_6 
REMARK    5  A    between atoms: CB_8  and  CG_9 
REMARK    6  A    between atoms: CZ_14  and  OH_15 
REMARK    7  A    between atoms: OH_15  and  P_16 
REMARK    8  A    between atoms: CA_28  and  N_26 
REMARK    9  A    between atoms: C_27  and  CA_28 
REMARK       I    between atoms: C_27  and  N_29 
REMARK   10  A    between atoms: N_29  and  CA_30 
REMARK   11  A    between atoms: CA_30  and  C_31 
REMARK   12  A    between atoms: CA_30  and  CB_33 
REMARK       I    between atoms: C_31  and  N_37 
REMARK   13  A    between atoms: CB_33  and  CG_34 
REMARK       I    between atoms: CG_34  and  ND2_36 
ROOT
ATOM      1  CD  ACE d           4.714  -7.707   3.610  0.00  0.00    -0.065 C 
ATOM      2  CG  ACE d           5.918  -8.681   3.498  0.00  0.00    -0.062 C 
ATOM      3  CE  ACE d           5.056  -6.392   2.885  0.00  0.00    -0.062 C 
ATOM      4  CB  ACE d           7.236  -8.082   4.091  0.00  0.00    -0.033 C 
ATOM      5  CH  ACE d           6.382  -5.805   3.403  0.00  0.00    -0.033 C 
ATOM      6  CA  ACE d           7.598  -6.752   3.403  0.00  0.00     0.114 C 
ATOM      7  H12 ACE d           4.506  -7.500   4.670  0.00  0.00     0.033 H 
ATOM      8  H13 ACE d           3.828  -8.164   3.145  0.00  0.00     0.033 H 
ATOM      9  H14 ACE d           6.083  -8.915   2.436  0.00  0.00     0.033 H 
ATOM     10  H15 ACE d           5.675  -9.605   4.043  0.00  0.00     0.033 H 
ATOM     11  H16 ACE d           4.249  -5.665   3.059  0.00  0.00     0.033 H 
ATOM     12  H17 ACE d           5.147  -6.589   1.806  0.00  0.00     0.033 H 
ATOM     13  H18 ACE d           8.056  -8.799   3.940  0.00  0.00     0.037 H 
ATOM     14  H19 ACE d           7.097  -7.903   5.168  0.00  0.00     0.037 H 
ATOM     15  H20 ACE d           6.219  -5.470   4.437  0.00  0.00     0.037 H 
ATOM     16  H21 ACE d           6.634  -4.939   2.773  0.00  0.00     0.037 H 
ENDROOT
BRANCH   6  17
ATOM     17  N   ACE d           7.943  -6.968   1.993  0.00  0.00    -0.341 N 
ATOM     18  C   ACE d           8.322  -5.994   1.176  0.00  0.00     0.241 C 
ATOM     19  O   ACE d           8.456  -4.828   1.515  0.00  0.00    -0.271 OA
ATOM     20  H22 ACE d           7.890  -7.898   1.630  0.00  0.00     0.163 HD
BRANCH  18  21
ATOM     21  CA  ACE d           8.593  -6.417  -0.261  0.00  0.00     0.093 C 
ATOM     22  H5  ACE d           8.066  -5.745  -0.955  0.00  0.00     0.088 H 
BRANCH  21  23
ATOM     23  N   ACE d          10.060  -6.351  -0.496  0.00  0.00    -0.348 N 
ATOM     24  C   ACE d          10.604  -5.307  -1.147  0.00  0.00     0.214 C 
ATOM     25  O   ACE d           9.959  -4.331  -1.549  0.00  0.00    -0.274 OA
ATOM     26  H4  ACE d          10.647  -7.091  -0.167  0.00  0.00     0.163 HD
BRANCH  24  27
ATOM     27  CH3 ACE d          12.137  -5.360  -1.367  0.00  0.00    -0.003 C 
ATOM     28  H1  ACE d          12.540  -6.283  -0.924  0.00  0.00     0.040 H 
ATOM     29  H2  ACE d          12.607  -4.489  -0.889  0.00  0.00     0.040 H 
ATOM     30  H3  ACE d          12.352  -5.347  -2.446  0.00  0.00     0.040 H 
ENDBRANCH  24  27
ENDBRANCH  21  23
BRANCH  21  31
ATOM     31  CB  ACE d           8.115  -7.896  -0.488  0.00  0.00    -0.014 C 
ATOM     32  H6  ACE d           7.119  -7.887  -0.955  0.00  0.00     0.043 H 
ATOM     33  H7  ACE d           8.062  -8.412   0.482  0.00  0.00     0.043 H 
BRANCH  31  34
ATOM     34  CG  ACE d           9.091  -8.634  -1.399  0.00  0.00    -0.056 A 
ATOM     35  CD1 ACE d           9.269  -8.155  -2.683  0.00  0.00    -0.074 A 
ATOM     36  CE1 ACE d          10.087  -8.878  -3.552  0.00  0.00    -0.050 A 
ATOM     37  H8  ACE d           8.785  -7.241  -3.007  0.00  0.00     0.084 H 
ATOM     38  CZ  ACE d          10.743 -10.048  -3.112  0.00  0.00     0.082 A 
ATOM     39  H10 ACE d          10.220  -8.538  -4.573  0.00  0.00     0.087 H 
ATOM     40  CE2 ACE d          10.564 -10.541  -1.828  0.00  0.00    -0.050 A 
ATOM     41  CD2 ACE d           9.752  -9.805  -0.932  0.00  0.00    -0.074 A 
ATOM     42  H11 ACE d          11.034 -11.468  -1.518  0.00  0.00     0.087 H 
ATOM     43  H9  ACE d           9.636 -10.128   0.096  0.00  0.00     0.084 H 
BRANCH  38  44
ATOM     44  OH  ACE d          11.506 -10.628  -4.101  0.00  0.00    -0.240 OA
BRANCH  44  45
ATOM     45  P   ACE d          13.042 -10.144  -4.474  0.00  0.00     0.427 P 
ATOM     46  O1P ACE d          13.689 -11.476  -5.019  0.00  0.00    -0.617 OA
ATOM     47  O2P ACE d          13.061  -9.112  -5.518  0.00  0.00    -0.617 OA
ATOM     48  O3P ACE d          13.704  -9.787  -3.200  0.00  0.00    -0.617 OA
ENDBRANCH  44  45
ENDBRANCH  38  44
ENDBRANCH  31  34
ENDBRANCH  21  31
ENDBRANCH  18  21
ENDBRANCH   6  17
BRANCH   6  49
ATOM     49  C   ACE d           8.847  -6.187   4.142  0.00  0.00     0.246 C 
ATOM     50  O   ACE d           8.829  -5.116   4.821  0.00  0.00    -0.271 OA
ATOM     51  N   ACE d           9.922  -7.005   4.107  0.00  0.00    -0.345 N 
ATOM     52  H23 ACE d           9.871  -7.862   3.595  0.00  0.00     0.163 HD
BRANCH  51  53
ATOM     53  CA  ACE d          11.167  -6.656   4.810  0.00  0.00     0.097 C 
ATOM     54  H24 ACE d          10.901  -5.980   5.636  0.00  0.00     0.088 H 
BRANCH  53  55
ATOM     55  C   ACE d          12.153  -5.901   3.925  0.00  0.00     0.238 C 
ATOM     56  O   ACE d          11.808  -5.527   2.818  0.00  0.00    -0.271 OA
ATOM     57  N   ACE d          13.399  -5.788   4.338  0.00  0.00    -0.368 N 
ATOM     58  H29 ACE d          14.069  -5.298   3.779  0.00  0.00     0.159 HD
ATOM     59  H30 ACE d          13.675  -6.192   5.210  0.00  0.00     0.159 HD
ENDBRANCH  53  55
BRANCH  53  60
ATOM     60  CB  ACE d          11.777  -7.941   5.438  0.00  0.00     0.036 C 
ATOM     61  H25 ACE d          11.241  -8.172   6.370  0.00  0.00     0.051 H 
ATOM     62  H26 ACE d          12.839  -7.761   5.660  0.00  0.00     0.051 H 
BRANCH  60  63
ATOM     63  CG  ACE d          11.663  -9.158   4.476  0.00  0.00     0.217 C 
ATOM     64  OD1 ACE d          11.608  -8.970   3.237  0.00  0.00    -0.274 OA
ATOM     65  ND2 ACE d          11.635 -10.343   5.067  0.00  0.00    -0.370 N 
ATOM     66  H27 ACE d          11.562 -11.175   4.516  0.00  0.00     0.159 HD
ATOM     67  H28 ACE d          11.685 -10.406   6.064  0.00  0.00     0.159 HD
ENDBRANCH  60  63
ENDBRANCH  53  60
ENDBRANCH  51  53
ENDBRANCH   6  49
TORSDOF 13
ENDMDL
MODEL 2
REMARK VINA RESULT:      -5.7      2.573      5.435
REMARK  13 active torsions:
REMARK  status: ('A' for Active; 'I' for Inactive)
REMARK    1  A    between atoms: C_1  and  CH3_3 
REMARK       I    between atoms: N_4  and  C_1 
REMARK    2  A    between atoms: CA_5  and  N_4 
REMARK    3  A    between atoms: C_6  and  CA_5 
REMARK    4  A    between atoms: CA_5  and  CB_8 
REMARK       I    between atoms: N_26  and  C_6 
REMARK    5  A    between atoms: CB_8  and  CG_9 
REMARK    6  A    between atoms: CZ_14  and  OH_15 
REMARK    7  A    between atoms: OH_15  and  P_16 
REMARK    8  A    between atoms: CA_28  and  N_26 
REMARK    9  A    between atoms: C_27  and  CA_28 
REMARK       I    between atoms: C_27  and  N_29 
REMARK   10  A    between atoms: N_29  and  CA_30 
REMARK   11  A    between atoms: CA_30  and  C_31 
REMARK   12  A    between atoms: CA_30  and  CB_33 
REMARK       I    between atoms: C_31  and  N_37 
REMARK   13  A    between atoms: CB_33  and  CG_34 
REMARK       I    between atoms: CG_34  and  ND2_36 
ROOT
ATOM      1  CD  ACE d           4.561  -8.563   4.198  0.00  0.00    -0.065 C 
ATOM      2  CG  ACE d           5.434  -7.284   4.299  0.00  0.00    -0.062 C 
ATOM      3  CE  ACE d           5.001  -9.383   2.970  0.00  0.00    -0.062 C 
ATOM      4  CB  ACE d           5.351  -6.393   3.015  0.00  0.00    -0.033 C 
ATOM      5  CH  ACE d           4.989  -8.518   1.696  0.00  0.00    -0.033 C 
ATOM      6  CA  ACE d           5.764  -7.187   1.763  0.00  0.00     0.114 C 
ATOM      7  H12 ACE d           3.503  -8.279   4.091  0.00  0.00     0.033 H 
ATOM      8  H13 ACE d           4.687  -9.168   5.108  0.00  0.00     0.033 H 
ATOM      9  H14 ACE d           6.481  -7.584   4.452  0.00  0.00     0.033 H 
ATOM     10  H15 ACE d           5.092  -6.692   5.161  0.00  0.00     0.033 H 
ATOM     11  H16 ACE d           4.312 -10.230   2.836  0.00  0.00     0.033 H 
ATOM     12  H17 ACE d           6.020  -9.762   3.138  0.00  0.00     0.033 H 
ATOM     13  H18 ACE d           6.024  -5.531   3.132  0.00  0.00     0.037 H 
ATOM     14  H19 ACE d           4.317  -6.038   2.891  0.00  0.00     0.037 H 
ATOM     15  H20 ACE d           3.941  -8.283   1.461  0.00  0.00     0.037 H 
ATOM     16  H21 ACE d           5.422  -9.117   0.881  0.00  0.00     0.037 H 
ENDROOT
BRANCH   6  17
ATOM     17  N   ACE d           7.186  -7.550   1.816  0.00  0.00    -0.341 N 
ATOM     18  C   ACE d           8.161  -6.664   1.971  0.00  0.00     0.241 C 
ATOM     19  O   ACE d           7.981  -5.464   2.119  0.00  0.00    -0.271 OA
ATOM     20  H22 ACE d           7.432  -8.515   1.732  0.00  0.00     0.163 HD
BRANCH  18  21
ATOM     21  CA  ACE d           9.571  -7.236   1.956  0.00  0.00     0.093 C 
ATOM     22  H5  ACE d          10.232  -6.590   1.361  0.00  0.00     0.088 H 
BRANCH  21  23
ATOM     23  N   ACE d          10.057  -7.313   3.360  0.00  0.00    -0.348 N 
ATOM     24  C   ACE d          11.038  -8.167   3.700  0.00  0.00     0.214 C 
ATOM     25  O   ACE d          11.626  -8.900   2.896  0.00  0.00    -0.274 OA
ATOM     26  H4  ACE d           9.649  -6.724   4.057  0.00  0.00     0.163 HD
BRANCH  24  27
ATOM     27  CH3 ACE d          11.439  -8.190   5.197  0.00  0.00    -0.003 C 
ATOM     28  H1  ACE d          12.072  -7.319   5.420  0.00  0.00     0.040 H 
ATOM     29  H2  ACE d          11.996  -9.113   5.414  0.00  0.00     0.040 H 
ATOM     30  H3  ACE d          10.533  -8.153   5.819  0.00  0.00     0.040 H 
ENDBRANCH  24  27
ENDBRANCH  21  23
BRANCH  21  31
ATOM     31  CB  ACE d           9.559  -8.685   1.351  0.00  0.00    -0.014 C 
ATOM     32  H6  ACE d           8.538  -9.090   1.400  0.00  0.00     0.043 H 
ATOM     33  H7  ACE d          10.236  -9.327   1.933  0.00  0.00     0.043 H 
BRANCH  31  34
ATOM     34  CG  ACE d          10.020  -8.657  -0.103  0.00  0.00    -0.056 A 
ATOM     35  CD1 ACE d           9.896  -9.817  -0.845  0.00  0.00    -0.074 A 
ATOM     36  CE1 ACE d          10.400  -9.828  -2.146  0.00  0.00    -0.050 A 
ATOM     37  H8  ACE d           9.420 -10.696  -0.427  0.00  0.00     0.084 H 
ATOM     38  CZ  ACE d          10.987  -8.667  -2.697  0.00  0.00     0.082 A 
ATOM     39  H10 ACE d          10.341 -10.734  -2.739  0.00  0.00     0.087 H 
ATOM     40  CE2 ACE d          11.123  -7.502  -1.957  0.00  0.00    -0.050 A 
ATOM     41  CD2 ACE d          10.597  -7.474  -0.643  0.00  0.00    -0.074 A 
ATOM     42  H11 ACE d          11.620  -6.634  -2.375  0.00  0.00     0.087 H 
ATOM     43  H9  ACE d          10.632  -6.563  -0.057  0.00  0.00     0.084 H 
BRANCH  38  44
ATOM     44  OH  ACE d          11.427  -8.861  -3.987  0.00  0.00    -0.240 OA
BRANCH  44  45
ATOM     45  P   ACE d          12.815  -9.673  -4.369  0.00  0.00     0.427 P 
ATOM     46  O1P ACE d          13.329  -8.880  -5.634  0.00  0.00    -0.617 OA
ATOM     47  O2P ACE d          13.812  -9.606  -3.294  0.00  0.00    -0.617 OA
ATOM     48  O3P ACE d          12.416 -11.032  -4.797  0.00  0.00    -0.617 OA
ENDBRANCH  44  45
ENDBRANCH  38  44
ENDBRANCH  31  34
ENDBRANCH  21  31
ENDBRANCH  18  21
ENDBRANCH   6  17
BRANCH   6  49
ATOM     49  C   ACE d           5.534  -6.253   0.538  0.00  0.00     0.246 C 
ATOM     50  O   ACE d           5.189  -5.037   0.645  0.00  0.00    -0.271 OA
ATOM     51  N   ACE d           5.863  -6.811  -0.648  0.00  0.00    -0.345 N 
ATOM     52  H23 ACE d           6.174  -7.761  -0.674  0.00  0.00     0.163 HD
BRANCH  51  53
ATOM     53  CA  ACE d           5.769  -6.046  -1.901  0.00  0.00     0.097 C 
ATOM     54  H24 ACE d           5.468  -5.021  -1.640  0.00  0.00     0.088 H 
BRANCH  53  55
ATOM     55  C   ACE d           4.704  -6.590  -2.847  0.00  0.00     0.238 C 
ATOM     56  O   ACE d           4.180  -7.665  -2.614  0.00  0.00    -0.271 OA
ATOM     57  N   ACE d           4.473  -5.935  -3.966  0.00  0.00    -0.368 N 
ATOM     58  H29 ACE d           3.780  -6.267  -4.607  0.00  0.00     0.159 HD
ATOM     59  H30 ACE d           4.991  -5.105  -4.176  0.00  0.00     0.159 HD
ENDBRANCH  53  55
BRANCH  53  60
ATOM     60  CB  ACE d           7.177  -5.965  -2.556  0.00  0.00     0.036 C 
ATOM     61  H25 ACE d           7.917  -5.710  -1.783  0.00  0.00     0.051 H 
ATOM     62  H26 ACE d           7.168  -5.180  -3.327  0.00  0.00     0.051 H 
BRANCH  60  63
ATOM     63  CG  ACE d           7.581  -7.315  -3.215  0.00  0.00     0.217 C 
ATOM     64  OD1 ACE d           7.378  -8.391  -2.605  0.00  0.00    -0.274 OA
ATOM     65  ND2 ACE d           8.126  -7.214  -4.418  0.00  0.00    -0.370 N 
ATOM     66  H27 ACE d           8.413  -8.038  -4.908  0.00  0.00     0.159 HD
ATOM     67  H28 ACE d           8.251  -6.314  -4.837  0.00  0.00     0.159 HD
ENDBRANCH  60  63
ENDBRANCH  53  60
ENDBRANCH  51  53
ENDBRANCH   6  49
TORSDOF 13
ENDMDL
MODEL 3
REMARK VINA RESULT:      -5.3      1.987      2.659
REMARK  13 active torsions:
REMARK  status: ('A' for Active; 'I' for Inactive)
REMARK    1  A    between atoms: C_1  and  CH3_3 
REMARK       I    between atoms: N_4  and  C_1 
REMARK    2  A    between atoms: CA_5  and  N_4 
REMARK    3  A    between atoms: C_6  and  CA_5 
REMARK    4  A    between atoms: CA_5  and  CB_8 
REMARK       I    between atoms: N_26  and  C_6 
REMARK    5  A    between atoms: CB_8  and  CG_9 
REMARK    6  A    between atoms: CZ_14  and  OH_15 
REMARK    7  A    between atoms: OH_15  and  P_16 
REMARK    8  A    between atoms: CA_28  and  N_26 
REMARK    9  A    between atoms: C_27  and  CA_28 
REMARK       I    between atoms: C_27  and  N_29 
REMARK   10  A    between atoms: N_29  and  CA_30 
REMARK   11  A    between atoms: CA_30  and  C_31 
REMARK   12  A    between atoms: CA_30  and  CB_33 
REMARK       I    between atoms: C_31  and  N_37 
REMARK   13  A    between atoms: CB_33  and  CG_34 
REMARK       I    between atoms: CG_34  and  ND2_36 
ROOT
ATOM      1  CD  ACE d           5.214  -6.449   5.805  0.00  0.00    -0.065 C 
ATOM      2  CG  ACE d           5.869  -7.657   5.084  0.00  0.00    -0.062 C 
ATOM      3  CE  ACE d           5.580  -5.152   5.057  0.00  0.00    -0.062 C 
ATOM      4  CB  ACE d           7.425  -7.529   4.983  0.00  0.00    -0.033 C 
ATOM      5  CH  ACE d           7.105  -5.025   4.886  0.00  0.00    -0.033 C 
ATOM      6  CA  ACE d           7.828  -6.232   4.258  0.00  0.00     0.114 C 
ATOM      7  H12 ACE d           5.584  -6.394   6.839  0.00  0.00     0.033 H 
ATOM      8  H13 ACE d           4.121  -6.573   5.813  0.00  0.00     0.033 H 
ATOM      9  H14 ACE d           5.455  -7.727   4.067  0.00  0.00     0.033 H 
ATOM     10  H15 ACE d           5.626  -8.574   5.642  0.00  0.00     0.033 H 
ATOM     11  H16 ACE d           5.208  -4.290   5.629  0.00  0.00     0.033 H 
ATOM     12  H17 ACE d           5.106  -5.165   4.063  0.00  0.00     0.033 H 
ATOM     13  H18 ACE d           7.820  -8.391   4.425  0.00  0.00     0.037 H 
ATOM     14  H19 ACE d           7.851  -7.522   5.997  0.00  0.00     0.037 H 
ATOM     15  H20 ACE d           7.540  -4.855   5.882  0.00  0.00     0.037 H 
ATOM     16  H21 ACE d           7.298  -4.150   4.248  0.00  0.00     0.037 H 
ENDROOT
BRANCH   6  17
ATOM     17  N   ACE d           7.412  -6.266   2.851  0.00  0.00    -0.341 N 
ATOM     18  C   ACE d           7.626  -5.270   2.001  0.00  0.00     0.241 C 
ATOM     19  O   ACE d           8.218  -4.240   2.287  0.00  0.00    -0.271 OA
ATOM     20  H22 ACE d           6.943  -7.083   2.516  0.00  0.00     0.163 HD
BRANCH  18  21
ATOM     21  CA  ACE d           7.077  -5.482   0.597  0.00  0.00     0.093 C 
ATOM     22  H5  ACE d           6.198  -4.841   0.438  0.00  0.00     0.088 H 
BRANCH  21  23
ATOM     23  N   ACE d           8.148  -5.136  -0.377  0.00  0.00    -0.348 N 
ATOM     24  C   ACE d           7.849  -4.520  -1.534  0.00  0.00     0.214 C 
ATOM     25  O   ACE d           6.709  -4.163  -1.852  0.00  0.00    -0.274 OA
ATOM     26  H4  ACE d           9.099  -5.365  -0.168  0.00  0.00     0.163 HD
BRANCH  24  27
ATOM     27  CH3 ACE d           9.037  -4.241  -2.489  0.00  0.00    -0.003 C 
ATOM     28  H1  ACE d           9.977  -4.539  -2.001  0.00  0.00     0.040 H 
ATOM     29  H2  ACE d           9.071  -3.169  -2.728  0.00  0.00     0.040 H 
ATOM     30  H3  ACE d           8.906  -4.819  -3.415  0.00  0.00     0.040 H 
ENDBRANCH  24  27
ENDBRANCH  21  23
BRANCH  21  31
ATOM     31  CB  ACE d           6.682  -6.988   0.393  0.00  0.00    -0.014 C 
ATOM     32  H6  ACE d           5.721  -7.041  -0.139  0.00  0.00     0.043 H 
ATOM     33  H7  ACE d           6.585  -7.473   1.375  0.00  0.00     0.043 H 
BRANCH  31  34
ATOM     34  CG  ACE d           7.749  -7.711  -0.422  0.00  0.00    -0.056 A 
ATOM     35  CD1 ACE d           7.404  -8.171  -1.679  0.00  0.00    -0.074 A 
ATOM     36  CE1 ACE d           8.344  -8.914  -2.394  0.00  0.00    -0.050 A 
ATOM     37  H8  ACE d           6.427  -7.959  -2.099  0.00  0.00     0.084 H 
ATOM     38  CZ  ACE d           9.626  -9.154  -1.855  0.00  0.00     0.082 A 
ATOM     39  H10 ACE d           8.087  -9.310  -3.370  0.00  0.00     0.087 H 
ATOM     40  CE2 ACE d           9.979  -8.704  -0.591  0.00  0.00    -0.050 A 
ATOM     41  CD2 ACE d           9.040  -7.932   0.134  0.00  0.00    -0.074 A 
ATOM     42  H11 ACE d          10.950  -8.939  -0.169  0.00  0.00     0.087 H 
ATOM     43  H9  ACE d           9.301  -7.514   1.099  0.00  0.00     0.084 H 
BRANCH  38  44
ATOM     44  OH  ACE d          10.420  -9.903  -2.696  0.00  0.00    -0.240 OA
BRANCH  44  45
ATOM     45  P   ACE d          10.700 -11.519  -2.494  0.00  0.00     0.427 P 
ATOM     46  O1P ACE d          12.266 -11.566  -2.306  0.00  0.00    -0.617 OA
ATOM     47  O2P ACE d          10.034 -12.053  -1.300  0.00  0.00    -0.617 OA
ATOM     48  O3P ACE d          10.361 -12.180  -3.774  0.00  0.00    -0.617 OA
ENDBRANCH  44  45
ENDBRANCH  38  44
ENDBRANCH  31  34
ENDBRANCH  21  31
ENDBRANCH  18  21
ENDBRANCH   6  17
BRANCH   6  49
ATOM     49  C   ACE d           9.382  -6.146   4.317  0.00  0.00     0.246 C 
ATOM     50  O   ACE d          10.011  -5.075   4.576  0.00  0.00    -0.271 OA
ATOM     51  N   ACE d          10.003  -7.340   4.200  0.00  0.00    -0.345 N 
ATOM     52  H23 ACE d           9.459  -8.164   4.042  0.00  0.00     0.163 HD
BRANCH  51  53
ATOM     53  CA  ACE d          11.467  -7.450   4.299  0.00  0.00     0.097 C 
ATOM     54  H24 ACE d          11.899  -6.595   3.758  0.00  0.00     0.088 H 
BRANCH  53  55
ATOM     55  C   ACE d          12.011  -8.711   3.634  0.00  0.00     0.238 C 
ATOM     56  O   ACE d          11.310  -9.335   2.857  0.00  0.00    -0.271 OA
ATOM     57  N   ACE d          13.187  -9.160   4.022  0.00  0.00    -0.368 N 
ATOM     58  H29 ACE d          13.570  -9.984   3.605  0.00  0.00     0.159 HD
ATOM     59  H30 ACE d          13.697  -8.677   4.734  0.00  0.00     0.159 HD
ENDBRANCH  53  55
BRANCH  53  60
ATOM     60  CB  ACE d          11.889  -7.320   5.789  0.00  0.00     0.036 C 
ATOM     61  H25 ACE d          11.953  -8.326   6.231  0.00  0.00     0.051 H 
ATOM     62  H26 ACE d          11.131  -6.731   6.326  0.00  0.00     0.051 H 
BRANCH  60  63
ATOM     63  CG  ACE d          13.270  -6.618   5.934  0.00  0.00     0.217 C 
ATOM     64  OD1 ACE d          13.805  -6.086   4.933  0.00  0.00    -0.274 OA
ATOM     65  ND2 ACE d          13.788  -6.638   7.153  0.00  0.00    -0.370 N 
ATOM     66  H27 ACE d          14.673  -6.208   7.327  0.00  0.00     0.159 HD
ATOM     67  H28 ACE d          13.293  -7.084   7.899  0.00  0.00     0.159 HD
ENDBRANCH  60  63
ENDBRANCH  53  60
ENDBRANCH  51  53
ENDBRANCH   6  49
TORSDOF 13
ENDMDL
MODEL 4
REMARK VINA RESULT:      -5.0      1.637      2.582
REMARK  13 active torsions:
REMARK  status: ('A' for Active; 'I' for Inactive)
REMARK    1  A    between atoms: C_1  and  CH3_3 
REMARK       I    between atoms: N_4  and  C_1 
REMARK    2  A    between atoms: CA_5  and  N_4 
REMARK    3  A    between atoms: C_6  and  CA_5 
REMARK    4  A    between atoms: CA_5  and  CB_8 
REMARK       I    between atoms: N_26  and  C_6 
REMARK    5  A    between atoms: CB_8  and  CG_9 
REMARK    6  A    between atoms: CZ_14  and  OH_15 
REMARK    7  A    between atoms: OH_15  and  P_16 
REMARK    8  A    between atoms: CA_28  and  N_26 
REMARK    9  A    between atoms: C_27  and  CA_28 
REMARK       I    between atoms: C_27  and  N_29 
REMARK   10  A    between atoms: N_29  and  CA_30 
REMARK   11  A    between atoms: CA_30  and  C_31 
REMARK   12  A    between atoms: CA_30  and  CB_33 
REMARK       I    between atoms: C_31  and  N_37 
REMARK   13  A    between atoms: CB_33  and  CG_34 
REMARK       I    between atoms: CG_34  and  ND2_36 
ROOT
ATOM      1  CD  ACE d           5.490  -6.677   4.299  0.00  0.00    -0.065 C 
ATOM      2  CG  ACE d           5.723  -8.082   3.683  0.00  0.00    -0.062 C 
ATOM      3  CE  ACE d           6.204  -5.620   3.435  0.00  0.00    -0.062 C 
ATOM      4  CB  ACE d           7.240  -8.443   3.559  0.00  0.00    -0.033 C 
ATOM      5  CH  ACE d           7.690  -5.977   3.241  0.00  0.00    -0.033 C 
ATOM      6  CA  ACE d           7.991  -7.395   2.718  0.00  0.00     0.114 C 
ATOM      7  H12 ACE d           5.895  -6.651   5.321  0.00  0.00     0.033 H 
ATOM      8  H13 ACE d           4.412  -6.461   4.327  0.00  0.00     0.033 H 
ATOM      9  H14 ACE d           5.271  -8.106   2.680  0.00  0.00     0.033 H 
ATOM     10  H15 ACE d           5.233  -8.832   4.323  0.00  0.00     0.033 H 
ATOM     11  H16 ACE d           6.132  -4.640   3.931  0.00  0.00     0.033 H 
ATOM     12  H17 ACE d           5.715  -5.569   2.450  0.00  0.00     0.033 H 
ATOM     13  H18 ACE d           7.336  -9.427   3.076  0.00  0.00     0.037 H 
ATOM     14  H19 ACE d           7.683  -8.482   4.565  0.00  0.00     0.037 H 
ATOM     15  H20 ACE d           8.190  -5.866   4.214  0.00  0.00     0.037 H 
ATOM     16  H21 ACE d           8.116  -5.259   2.526  0.00  0.00     0.037 H 
ENDROOT
BRANCH   6  17
ATOM     17  N   ACE d           7.536  -7.417   1.323  0.00  0.00    -0.341 N 
ATOM     18  C   ACE d           8.042  -6.638   0.376  0.00  0.00     0.241 C 
ATOM     19  O   ACE d           8.957  -5.848   0.554  0.00  0.00    -0.271 OA
ATOM     20  H22 ACE d           6.805  -8.053   1.073  0.00  0.00     0.163 HD
BRANCH  18  21
ATOM     21  CA  ACE d           7.401  -6.780  -0.998  0.00  0.00     0.093 C 
ATOM     22  H5  ACE d           6.368  -6.405  -0.970  0.00  0.00     0.088 H 
BRANCH  21  23
ATOM     23  N   ACE d           8.207  -5.994  -1.970  0.00  0.00    -0.348 N 
ATOM     24  C   ACE d           7.638  -5.023  -2.706  0.00  0.00     0.214 C 
ATOM     25  O   ACE d           6.451  -4.687  -2.609  0.00  0.00    -0.274 OA
ATOM     26  H4  ACE d           9.182  -6.189  -2.076  0.00  0.00     0.163 HD
BRANCH  24  27
ATOM     27  CH3 ACE d           8.563  -4.294  -3.713  0.00  0.00    -0.003 C 
ATOM     28  H1  ACE d           9.543  -4.792  -3.737  0.00  0.00     0.040 H 
ATOM     29  H2  ACE d           8.692  -3.247  -3.400  0.00  0.00     0.040 H 
ATOM     30  H3  ACE d           8.111  -4.325  -4.715  0.00  0.00     0.040 H 
ENDBRANCH  24  27
ENDBRANCH  21  23
BRANCH  21  31
ATOM     31  CB  ACE d           7.408  -8.286  -1.444  0.00  0.00    -0.014 C 
ATOM     32  H6  ACE d           6.706  -8.419  -2.280  0.00  0.00     0.043 H 
ATOM     33  H7  ACE d           7.096  -8.915  -0.598  0.00  0.00     0.043 H 
BRANCH  31  34
ATOM     34  CG  ACE d           8.806  -8.700  -1.890  0.00  0.00    -0.056 A 
ATOM     35  CD1 ACE d           9.316  -8.128  -3.040  0.00  0.00    -0.074 A 
ATOM     36  CE1 ACE d          10.555  -8.569  -3.508  0.00  0.00    -0.050 A 
ATOM     37  H8  ACE d           8.768  -7.356  -3.567  0.00  0.00     0.084 H 
ATOM     38  CZ  ACE d          11.280  -9.550  -2.796  0.00  0.00     0.082 A 
ATOM     39  H10 ACE d          10.963  -8.156  -4.423  0.00  0.00     0.087 H 
ATOM     40  CE2 ACE d          10.773 -10.136  -1.646  0.00  0.00    -0.050 A 
ATOM     41  CD2 ACE d           9.527  -9.681  -1.152  0.00  0.00    -0.074 A 
ATOM     42  H11 ACE d          11.318 -10.924  -1.137  0.00  0.00     0.087 H 
ATOM     43  H9  ACE d           9.127 -10.074  -0.225  0.00  0.00     0.084 H 
BRANCH  38  44
ATOM     44  OH  ACE d          12.477  -9.863  -3.402  0.00  0.00    -0.240 OA
BRANCH  44  45
ATOM     45  P   ACE d          12.858 -11.374  -3.952  0.00  0.00     0.427 P 
ATOM     46  O1P ACE d          13.631 -11.992  -2.723  0.00  0.00    -0.617 OA
ATOM     47  O2P ACE d          11.664 -12.174  -4.250  0.00  0.00    -0.617 OA
ATOM     48  O3P ACE d          13.814 -11.199  -5.068  0.00  0.00    -0.617 OA
ENDBRANCH  44  45
ENDBRANCH  38  44
ENDBRANCH  31  34
ENDBRANCH  21  31
ENDBRANCH  18  21
ENDBRANCH   6  17
BRANCH   6  49
ATOM     49  C   ACE d           9.499  -7.782   2.756  0.00  0.00     0.246 C 
ATOM     50  O   ACE d          10.041  -8.558   1.911  0.00  0.00    -0.271 OA
ATOM     51  N   ACE d          10.214  -7.113   3.687  0.00  0.00    -0.345 N 
ATOM     52  H23 ACE d           9.748  -6.475   4.300  0.00  0.00     0.163 HD
BRANCH  51  53
ATOM     53  CA  ACE d          11.666  -7.307   3.816  0.00  0.00     0.097 C 
ATOM     54  H24 ACE d          11.986  -7.967   2.996  0.00  0.00     0.088 H 
BRANCH  53  55
ATOM     55  C   ACE d          12.056  -8.004   5.117  0.00  0.00     0.238 C 
ATOM     56  O   ACE d          12.805  -7.447   5.899  0.00  0.00    -0.271 OA
ATOM     57  N   ACE d          11.668  -9.250   5.294  0.00  0.00    -0.368 N 
ATOM     58  H29 ACE d          11.909  -9.733   6.137  0.00  0.00     0.159 HD
ATOM     59  H30 ACE d          11.134  -9.714   4.587  0.00  0.00     0.159 HD
ENDBRANCH  53  55
BRANCH  53  60
ATOM     60  CB  ACE d          12.384  -5.942   3.621  0.00  0.00     0.036 C 
ATOM     61  H25 ACE d          12.594  -5.799   2.551  0.00  0.00     0.051 H 
ATOM     62  H26 ACE d          13.331  -5.953   4.182  0.00  0.00     0.051 H 
BRANCH  60  63
ATOM     63  CG  ACE d          11.511  -4.758   4.127  0.00  0.00     0.217 C 
ATOM     64  OD1 ACE d          10.560  -4.342   3.425  0.00  0.00    -0.274 OA
ATOM     65  ND2 ACE d          11.856  -4.268   5.308  0.00  0.00    -0.370 N 
ATOM     66  H27 ACE d          11.343  -3.505   5.702  0.00  0.00     0.159 HD
ATOM     67  H28 ACE d          12.630  -4.660   5.806  0.00  0.00     0.159 HD
ENDBRANCH  60  63
ENDBRANCH  53  60
ENDBRANCH  51  53
ENDBRANCH   6  49
TORSDOF 13
ENDMDL
MODEL 5
REMARK VINA RESULT:      -4.4      3.036      5.912
REMARK  13 active torsions:
REMARK  status: ('A' for Active; 'I' for Inactive)
REMARK    1  A    between atoms: C_1  and  CH3_3 
REMARK       I    between atoms: N_4  and  C_1 
REMARK    2  A    between atoms: CA_5  and  N_4 
REMARK    3  A    between atoms: C_6  and  CA_5 
REMARK    4  A    between atoms: CA_5  and  CB_8 
REMARK       I    between atoms: N_26  and  C_6 
REMARK    5  A    between atoms: CB_8  and  CG_9 
REMARK    6  A    between atoms: CZ_14  and  OH_15 
REMARK    7  A    between atoms: OH_15  and  P_16 
REMARK    8  A    between atoms: CA_28  and  N_26 
REMARK    9  A    between atoms: C_27  and  CA_28 
REMARK       I    between atoms: C_27  and  N_29 
REMARK   10  A    between atoms: N_29  and  CA_30 
REMARK   11  A    between atoms: CA_30  and  C_31 
REMARK   12  A    between atoms: CA_30  and  CB_33 
REMARK       I    between atoms: C_31  and  N_37 
REMARK   13  A    between atoms: CB_33  and  CG_34 
REMARK       I    between atoms: CG_34  and  ND2_36 
ROOT
ATOM      1  CD  ACE d           3.690  -8.324   1.506  0.00  0.00    -0.065 C 
ATOM      2  CG  ACE d           4.317  -6.948   1.858  0.00  0.00    -0.062 C 
ATOM      3  CE  ACE d           4.603  -9.055   0.502  0.00  0.00    -0.062 C 
ATOM      4  CB  ACE d           4.542  -6.047   0.600  0.00  0.00    -0.033 C 
ATOM      5  CH  ACE d           4.895  -8.170  -0.724  0.00  0.00    -0.033 C 
ATOM      6  CA  ACE d           5.434  -6.755  -0.436  0.00  0.00     0.114 C 
ATOM      7  H12 ACE d           2.697  -8.171   1.057  0.00  0.00     0.033 H 
ATOM      8  H13 ACE d           3.590  -8.928   2.420  0.00  0.00     0.033 H 
ATOM      9  H14 ACE d           5.287  -7.119   2.348  0.00  0.00     0.033 H 
ATOM     10  H15 ACE d           3.644  -6.423   2.552  0.00  0.00     0.033 H 
ATOM     11  H16 ACE d           4.105  -9.978   0.170  0.00  0.00     0.033 H 
ATOM     12  H17 ACE d           5.552  -9.308   0.998  0.00  0.00     0.033 H 
ATOM     13  H18 ACE d           5.027  -5.110   0.911  0.00  0.00     0.037 H 
ATOM     14  H19 ACE d           3.568  -5.821   0.141  0.00  0.00     0.037 H 
ATOM     15  H20 ACE d           3.958  -8.062  -1.290  0.00  0.00     0.037 H 
ATOM     16  H21 ACE d           5.639  -8.692  -1.344  0.00  0.00     0.037 H 
ENDROOT
BRANCH   6  17
ATOM     17  N   ACE d           6.795  -6.938   0.081  0.00  0.00    -0.341 N 
ATOM     18  C   ACE d           7.498  -5.968   0.651  0.00  0.00     0.241 C 
ATOM     19  O   ACE d           7.079  -4.835   0.836  0.00  0.00    -0.271 OA
ATOM     20  H22 ACE d           7.215  -7.842  -0.000  0.00  0.00     0.163 HD
BRANCH  18  21
ATOM     21  CA  ACE d           8.908  -6.349   1.080  0.00  0.00     0.093 C 
ATOM     22  H5  ACE d           9.644  -5.847   0.436  0.00  0.00     0.088 H 
BRANCH  21  23
ATOM     23  N   ACE d           9.092  -5.929   2.495  0.00  0.00    -0.348 N 
ATOM     24  C   ACE d          10.321  -5.692   2.986  0.00  0.00     0.214 C 
ATOM     25  O   ACE d          11.358  -5.758   2.315  0.00  0.00    -0.274 OA
ATOM     26  H4  ACE d           8.292  -5.822   3.088  0.00  0.00     0.163 HD
BRANCH  24  27
ATOM     27  CH3 ACE d          10.397  -5.296   4.482  0.00  0.00    -0.003 C 
ATOM     28  H1  ACE d          11.393  -4.886   4.703  0.00  0.00     0.040 H 
ATOM     29  H2  ACE d          10.221  -6.185   5.106  0.00  0.00     0.040 H 
ATOM     30  H3  ACE d           9.632  -4.538   4.700  0.00  0.00     0.040 H 
ENDBRANCH  24  27
ENDBRANCH  21  23
BRANCH  21  31
ATOM     31  CB  ACE d           9.097  -7.906   0.991  0.00  0.00    -0.014 C 
ATOM     32  H6  ACE d           8.110  -8.389   0.946  0.00  0.00     0.043 H 
ATOM     33  H7  ACE d           9.637  -8.256   1.884  0.00  0.00     0.043 H 
BRANCH  31  34
ATOM     34  CG  ACE d           9.895  -8.273  -0.255  0.00  0.00    -0.056 A 
ATOM     35  CD1 ACE d          10.659  -7.287  -0.850  0.00  0.00    -0.074 A 
ATOM     36  CE1 ACE d          11.318  -7.587  -2.043  0.00  0.00    -0.050 A 
ATOM     37  H8  ACE d          10.745  -6.304  -0.401  0.00  0.00     0.084 H 
ATOM     38  CZ  ACE d          11.231  -8.881  -2.602  0.00  0.00     0.082 A 
ATOM     39  H10 ACE d          11.901  -6.823  -2.543  0.00  0.00     0.087 H 
ATOM     40  CE2 ACE d          10.459  -9.875  -2.018  0.00  0.00    -0.050 A 
ATOM     41  CD2 ACE d           9.803  -9.586  -0.797  0.00  0.00    -0.074 A 
ATOM     42  H11 ACE d          10.361 -10.848  -2.485  0.00  0.00     0.087 H 
ATOM     43  H9  ACE d           9.239 -10.355  -0.281  0.00  0.00     0.084 H 
BRANCH  38  44
ATOM     44  OH  ACE d          11.942  -8.996  -3.776  0.00  0.00    -0.240 OA
BRANCH  44  45
ATOM     45  P   ACE d          12.368 -10.444  -4.450  0.00  0.00     0.427 P 
ATOM     46  O1P ACE d          13.739 -10.096  -5.151  0.00  0.00    -0.617 OA
ATOM     47  O2P ACE d          12.572 -11.489  -3.439  0.00  0.00    -0.617 OA
ATOM     48  O3P ACE d          11.367 -10.744  -5.498  0.00  0.00    -0.617 OA
ENDBRANCH  44  45
ENDBRANCH  38  44
ENDBRANCH  31  34
ENDBRANCH  21  31
ENDBRANCH  18  21
ENDBRANCH   6  17
BRANCH   6  49
ATOM     49  C   ACE d           5.496  -5.830  -1.687  0.00  0.00     0.246 C 
ATOM     50  O   ACE d           4.986  -4.669  -1.721  0.00  0.00    -0.271 OA
ATOM     51  N   ACE d           6.258  -6.316  -2.692  0.00  0.00    -0.345 N 
ATOM     52  H23 ACE d           6.678  -7.218  -2.598  0.00  0.00     0.163 HD
BRANCH  51  53
ATOM     53  CA  ACE d           6.480  -5.541  -3.922  0.00  0.00     0.097 C 
ATOM     54  H24 ACE d           6.371  -4.477  -3.667  0.00  0.00     0.088 H 
BRANCH  53  55
ATOM     55  C   ACE d           5.445  -5.840  -5.003  0.00  0.00     0.238 C 
ATOM     56  O   ACE d           5.496  -6.892  -5.614  0.00  0.00    -0.271 OA
ATOM     57  N   ACE d           4.598  -4.886  -5.334  0.00  0.00    -0.368 N 
ATOM     58  H29 ACE d           3.909  -5.052  -6.039  0.00  0.00     0.159 HD
ATOM     59  H30 ACE d           4.645  -3.996  -4.879  0.00  0.00     0.159 HD
ENDBRANCH  53  55
BRANCH  53  60
ATOM     60  CB  ACE d           7.941  -5.756  -4.406  0.00  0.00     0.036 C 
ATOM     61  H25 ACE d           8.617  -5.155  -3.781  0.00  0.00     0.051 H 
ATOM     62  H26 ACE d           8.023  -5.429  -5.453  0.00  0.00     0.051 H 
BRANCH  60  63
ATOM     63  CG  ACE d           8.362  -7.251  -4.310  0.00  0.00     0.217 C 
ATOM     64  OD1 ACE d           7.833  -7.992  -3.449  0.00  0.00    -0.274 OA
ATOM     65  ND2 ACE d           9.280  -7.635  -5.184  0.00  0.00    -0.370 N 
ATOM     66  H27 ACE d           9.604  -8.582  -5.186  0.00  0.00     0.159 HD
ATOM     67  H28 ACE d           9.650  -6.979  -5.842  0.00  0.00     0.159 HD
ENDBRANCH  60  63
ENDBRANCH  53  60
ENDBRANCH  51  53
ENDBRANCH   6  49
TORSDOF 13
ENDMDL
MODEL 6
REMARK VINA RESULT:      -4.2      3.665      7.299
REMARK  13 active torsions:
REMARK  status: ('A' for Active; 'I' for Inactive)
REMARK    1  A    between atoms: C_1  and  CH3_3 
REMARK       I    between atoms: N_4  and  C_1 
REMARK    2  A    between atoms: CA_5  and  N_4 
REMARK    3  A    between atoms: C_6  and  CA_5 
REMARK    4  A    between atoms: CA_5  and  CB_8 
REMARK       I    between atoms: N_26  and  C_6 
REMARK    5  A    between atoms: CB_8  and  CG_9 
REMARK    6  A    between atoms: CZ_14  and  OH_15 
REMARK    7  A    between atoms: OH_15  and  P_16 
REMARK    8  A    between atoms: CA_28  and  N_26 
REMARK    9  A    between atoms: C_27  and  CA_28 
REMARK       I    between atoms: C_27  and  N_29 
REMARK   10  A    between atoms: N_29  and  CA_30 
REMARK   11  A    between atoms: CA_30  and  C_31 
REMARK   12  A    between atoms: CA_30  and  CB_33 
REMARK       I    between atoms: C_31  and  N_37 
REMARK   13  A    between atoms: CB_33  and  CG_34 
REMARK       I    between atoms: CG_34  and  ND2_36 
ROOT
ATOM      1  CD  ACE d           5.041  -8.667   3.999  0.00  0.00    -0.065 C 
ATOM      2  CG  ACE d           6.106  -7.557   3.798  0.00  0.00    -0.062 C 
ATOM      3  CE  ACE d           4.863  -9.445   2.681  0.00  0.00    -0.062 C 
ATOM      4  CB  ACE d           5.735  -6.564   2.648  0.00  0.00    -0.033 C 
ATOM      5  CH  ACE d           4.556  -8.489   1.513  0.00  0.00    -0.033 C 
ATOM      6  CA  ACE d           5.528  -7.309   1.317  0.00  0.00     0.114 C 
ATOM      7  H12 ACE d           4.083  -8.209   4.288  0.00  0.00     0.033 H 
ATOM      8  H13 ACE d           5.371  -9.356   4.791  0.00  0.00     0.033 H 
ATOM      9  H14 ACE d           7.068  -8.032   3.556  0.00  0.00     0.033 H 
ATOM     10  H15 ACE d           6.204  -6.990   4.736  0.00  0.00     0.033 H 
ATOM     11  H16 ACE d           4.032 -10.156   2.792  0.00  0.00     0.033 H 
ATOM     12  H17 ACE d           5.791  -9.995   2.460  0.00  0.00     0.033 H 
ATOM     13  H18 ACE d           6.548  -5.832   2.528  0.00  0.00     0.037 H 
ATOM     14  H19 ACE d           4.805  -6.038   2.914  0.00  0.00     0.037 H 
ATOM     15  H20 ACE d           3.552  -8.070   1.679  0.00  0.00     0.037 H 
ATOM     16  H21 ACE d           4.557  -9.081   0.586  0.00  0.00     0.037 H 
ENDROOT
BRANCH   6  17
ATOM     17  N   ACE d           6.787  -7.898   0.845  0.00  0.00    -0.341 N 
ATOM     18  C   ACE d           7.858  -7.180   0.530  0.00  0.00     0.241 C 
ATOM     19  O   ACE d           7.921  -5.964   0.630  0.00  0.00    -0.271 OA
ATOM     20  H22 ACE d           6.841  -8.893   0.756  0.00  0.00     0.163 HD
BRANCH  18  21
ATOM     21  CA  ACE d           9.049  -7.976   0.017  0.00  0.00     0.093 C 
ATOM     22  H5  ACE d           8.726  -8.664  -0.777  0.00  0.00     0.088 H 
BRANCH  21  23
ATOM     23  N   ACE d          10.055  -7.017  -0.513  0.00  0.00    -0.348 N 
ATOM     24  C   ACE d          10.848  -7.355  -1.546  0.00  0.00     0.214 C 
ATOM     25  O   ACE d          10.778  -8.434  -2.146  0.00  0.00    -0.274 OA
ATOM     26  H4  ACE d          10.143  -6.111  -0.097  0.00  0.00     0.163 HD
BRANCH  24  27
ATOM     27  CH3 ACE d          11.884  -6.292  -1.991  0.00  0.00    -0.003 C 
ATOM     28  H1  ACE d          12.697  -6.782  -2.545  0.00  0.00     0.040 H 
ATOM     29  H2  ACE d          12.295  -5.787  -1.105  0.00  0.00     0.040 H 
ATOM     30  H3  ACE d          11.393  -5.551  -2.639  0.00  0.00     0.040 H 
ENDBRANCH  24  27
ENDBRANCH  21  23
BRANCH  21  31
ATOM     31  CB  ACE d           9.703  -8.788   1.192  0.00  0.00    -0.014 C 
ATOM     32  H6  ACE d          10.603  -9.300   0.822  0.00  0.00     0.043 H 
ATOM     33  H7  ACE d           8.983  -9.533   1.561  0.00  0.00     0.043 H 
BRANCH  31  34
ATOM     34  CG  ACE d          10.089  -7.852   2.333  0.00  0.00    -0.056 A 
ATOM     35  CD1 ACE d          10.964  -6.819   2.056  0.00  0.00    -0.074 A 
ATOM     36  CE1 ACE d          11.395  -6.015   3.112  0.00  0.00    -0.050 A 
ATOM     37  H8  ACE d          11.306  -6.637   1.044  0.00  0.00     0.084 H 
ATOM     38  CZ  ACE d          10.916  -6.236   4.422  0.00  0.00     0.082 A 
ATOM     39  H10 ACE d          12.103  -5.216   2.926  0.00  0.00     0.087 H 
ATOM     40  CE2 ACE d          10.044  -7.276   4.711  0.00  0.00    -0.050 A 
ATOM     41  CD2 ACE d           9.585  -8.084   3.644  0.00  0.00    -0.074 A 
ATOM     42  H11 ACE d           9.723  -7.464   5.729  0.00  0.00     0.087 H 
ATOM     43  H9  ACE d           8.859  -8.869   3.822  0.00  0.00     0.084 H 
BRANCH  38  44
ATOM     44  OH  ACE d          11.447  -5.350   5.334  0.00  0.00    -0.240 OA
BRANCH  44  45
ATOM     45  P   ACE d          13.025  -5.378   5.825  0.00  0.00     0.427 P 
ATOM     46  O1P ACE d          13.726  -4.459   4.750  0.00  0.00    -0.617 OA
ATOM     47  O2P ACE d          13.200  -4.806   7.166  0.00  0.00    -0.617 OA
ATOM     48  O3P ACE d          13.509  -6.765   5.645  0.00  0.00    -0.617 OA
ENDBRANCH  44  45
ENDBRANCH  38  44
ENDBRANCH  31  34
ENDBRANCH  21  31
ENDBRANCH  18  21
ENDBRANCH   6  17
BRANCH   6  49
ATOM     49  C   ACE d           5.050  -6.254   0.277  0.00  0.00     0.246 C 
ATOM     50  O   ACE d           4.728  -5.067   0.586  0.00  0.00    -0.271 OA
ATOM     51  N   ACE d           5.135  -6.671  -1.006  0.00  0.00    -0.345 N 
ATOM     52  H23 ACE d           5.440  -7.603  -1.201  0.00  0.00     0.163 HD
BRANCH  51  53
ATOM     53  CA  ACE d           4.786  -5.777  -2.121  0.00  0.00     0.097 C 
ATOM     54  H24 ACE d           4.126  -4.993  -1.722  0.00  0.00     0.088 H 
BRANCH  53  55
ATOM     55  C   ACE d           4.007  -6.486  -3.225  0.00  0.00     0.238 C 
ATOM     56  O   ACE d           3.800  -7.683  -3.145  0.00  0.00    -0.271 OA
ATOM     57  N   ACE d           3.691  -5.798  -4.303  0.00  0.00    -0.368 N 
ATOM     58  H29 ACE d           3.181  -6.235  -5.044  0.00  0.00     0.159 HD
ATOM     59  H30 ACE d           3.961  -4.838  -4.381  0.00  0.00     0.159 HD
ENDBRANCH  53  55
BRANCH  53  60
ATOM     60  CB  ACE d           6.075  -5.080  -2.641  0.00  0.00     0.036 C 
ATOM     61  H25 ACE d           6.627  -4.665  -1.784  0.00  0.00     0.051 H 
ATOM     62  H26 ACE d           5.791  -4.266  -3.323  0.00  0.00     0.051 H 
BRANCH  60  63
ATOM     63  CG  ACE d           6.998  -6.076  -3.400  0.00  0.00     0.217 C 
ATOM     64  OD1 ACE d           7.496  -7.052  -2.791  0.00  0.00    -0.274 OA
ATOM     65  ND2 ACE d           7.189  -5.802  -4.682  0.00  0.00    -0.370 N 
ATOM     66  H27 ACE d           7.770  -6.396  -5.239  0.00  0.00     0.159 HD
ATOM     67  H28 ACE d           6.751  -5.002  -5.093  0.00  0.00     0.159 HD
ENDBRANCH  60  63
ENDBRANCH  53  60
ENDBRANCH  51  53
ENDBRANCH   6  49
TORSDOF 13
ENDMDL
MODEL 7
REMARK VINA RESULT:      -4.2      2.226      3.107
REMARK  13 active torsions:
REMARK  status: ('A' for Active; 'I' for Inactive)
REMARK    1  A    between atoms: C_1  and  CH3_3 
REMARK       I    between atoms: N_4  and  C_1 
REMARK    2  A    between atoms: CA_5  and  N_4 
REMARK    3  A    between atoms: C_6  and  CA_5 
REMARK    4  A    between atoms: CA_5  and  CB_8 
REMARK       I    between atoms: N_26  and  C_6 
REMARK    5  A    between atoms: CB_8  and  CG_9 
REMARK    6  A    between atoms: CZ_14  and  OH_15 
REMARK    7  A    between atoms: OH_15  and  P_16 
REMARK    8  A    between atoms: CA_28  and  N_26 
REMARK    9  A    between atoms: C_27  and  CA_28 
REMARK       I    between atoms: C_27  and  N_29 
REMARK   10  A    between atoms: N_29  and  CA_30 
REMARK   11  A    between atoms: CA_30  and  C_31 
REMARK   12  A    between atoms: CA_30  and  CB_33 
REMARK       I    between atoms: C_31  and  N_37 
REMARK   13  A    between atoms: CB_33  and  CG_34 
REMARK       I    between atoms: CG_34  and  ND2_36 
ROOT
ATOM      1  CD  ACE d           4.940  -6.691   5.526  0.00  0.00    -0.065 C 
ATOM      2  CG  ACE d           5.522  -8.009   4.950  0.00  0.00    -0.062 C 
ATOM      3  CE  ACE d           5.271  -5.530   4.570  0.00  0.00    -0.062 C 
ATOM      4  CB  ACE d           7.068  -7.939   4.723  0.00  0.00    -0.033 C 
ATOM      5  CH  ACE d           6.781  -5.469   4.276  0.00  0.00    -0.033 C 
ATOM      6  CA  ACE d           7.438  -6.774   3.787  0.00  0.00     0.114 C 
ATOM      7  H12 ACE d           5.385  -6.493   6.513  0.00  0.00     0.033 H 
ATOM      8  H13 ACE d           3.849  -6.784   5.629  0.00  0.00     0.033 H 
ATOM      9  H14 ACE d           5.034  -8.217   3.986  0.00  0.00     0.033 H 
ATOM     10  H15 ACE d           5.306  -8.827   5.654  0.00  0.00     0.033 H 
ATOM     11  H16 ACE d           4.956  -4.582   5.032  0.00  0.00     0.033 H 
ATOM     12  H17 ACE d           4.726  -5.676   3.625  0.00  0.00     0.033 H 
ATOM     13  H18 ACE d           7.408  -8.884   4.273  0.00  0.00     0.037 H 
ATOM     14  H19 ACE d           7.567  -7.794   5.693  0.00  0.00     0.037 H 
ATOM     15  H20 ACE d           7.290  -5.165   5.203  0.00  0.00     0.037 H 
ATOM     16  H21 ACE d           6.942  -4.703   3.503  0.00  0.00     0.037 H 
ENDROOT
BRANCH   6  17
ATOM     17  N   ACE d           6.921  -7.005   2.433  0.00  0.00    -0.341 N 
ATOM     18  C   ACE d           6.817  -6.050   1.517  0.00  0.00     0.241 C 
ATOM     19  O   ACE d           7.170  -4.893   1.690  0.00  0.00    -0.271 OA
ATOM     20  H22 ACE d           6.631  -7.930   2.188  0.00  0.00     0.163 HD
BRANCH  18  21
ATOM     21  CA  ACE d           6.213  -6.483   0.189  0.00  0.00     0.093 C 
ATOM     22  H5  ACE d           5.116  -6.481   0.258  0.00  0.00     0.088 H 
BRANCH  21  23
ATOM     23  N   ACE d           6.664  -5.528  -0.859  0.00  0.00    -0.348 N 
ATOM     24  C   ACE d           5.823  -5.129  -1.830  0.00  0.00     0.214 C 
ATOM     25  O   ACE d           4.638  -5.476  -1.904  0.00  0.00    -0.274 OA
ATOM     26  H4  ACE d           7.601  -5.180  -0.841  0.00  0.00     0.163 HD
BRANCH  24  27
ATOM     27  CH3 ACE d           6.409  -4.162  -2.890  0.00  0.00    -0.003 C 
ATOM     28  H1  ACE d           5.713  -3.326  -3.049  0.00  0.00     0.040 H 
ATOM     29  H2  ACE d           6.557  -4.702  -3.837  0.00  0.00     0.040 H 
ATOM     30  H3  ACE d           7.375  -3.773  -2.536  0.00  0.00     0.040 H 
ENDBRANCH  24  27
ENDBRANCH  21  23
BRANCH  21  31
ATOM     31  CB  ACE d           6.720  -7.920  -0.192  0.00  0.00    -0.014 C 
ATOM     32  H6  ACE d           6.025  -8.369  -0.916  0.00  0.00     0.043 H 
ATOM     33  H7  ACE d           6.758  -8.542   0.714  0.00  0.00     0.043 H 
BRANCH  31  34
ATOM     34  CG  ACE d           8.112  -7.845  -0.810  0.00  0.00    -0.056 A 
ATOM     35  CD1 ACE d           8.221  -7.990  -2.181  0.00  0.00    -0.074 A 
ATOM     36  CE1 ACE d           9.498  -8.017  -2.744  0.00  0.00    -0.050 A 
ATOM     37  H8  ACE d           7.338  -8.082  -2.802  0.00  0.00     0.084 H 
ATOM     38  CZ  ACE d          10.642  -7.861  -1.932  0.00  0.00     0.082 A 
ATOM     39  H10 ACE d           9.611  -8.158  -3.813  0.00  0.00     0.087 H 
ATOM     40  CE2 ACE d          10.543  -7.723  -0.556  0.00  0.00    -0.050 A 
ATOM     41  CD2 ACE d           9.252  -7.674   0.024  0.00  0.00    -0.074 A 
ATOM     42  H11 ACE d          11.432  -7.654   0.061  0.00  0.00     0.087 H 
ATOM     43  H9  ACE d           9.134  -7.509   1.088  0.00  0.00     0.084 H 
BRANCH  38  44
ATOM     44  OH  ACE d          11.813  -7.912  -2.657  0.00  0.00    -0.240 OA
BRANCH  44  45
ATOM     45  P   ACE d          12.661  -6.573  -3.122  0.00  0.00     0.427 P 
ATOM     46  O1P ACE d          11.513  -5.592  -3.581  0.00  0.00    -0.617 OA
ATOM     47  O2P ACE d          13.416  -5.979  -2.011  0.00  0.00    -0.617 OA
ATOM     48  O3P ACE d          13.455  -6.956  -4.311  0.00  0.00    -0.617 OA
ENDBRANCH  44  45
ENDBRANCH  38  44
ENDBRANCH  31  34
ENDBRANCH  21  31
ENDBRANCH  18  21
ENDBRANCH   6  17
BRANCH   6  49
ATOM     49  C   ACE d           8.993  -6.721   3.724  0.00  0.00     0.246 C 
ATOM     50  O   ACE d           9.637  -5.766   3.193  0.00  0.00    -0.271 OA
ATOM     51  N   ACE d           9.605  -7.718   4.402  0.00  0.00    -0.345 N 
ATOM     52  H23 ACE d           9.051  -8.423   4.843  0.00  0.00     0.163 HD
BRANCH  51  53
ATOM     53  CA  ACE d          11.071  -7.782   4.501  0.00  0.00     0.097 C 
ATOM     54  H24 ACE d          11.481  -7.503   3.520  0.00  0.00     0.088 H 
BRANCH  53  55
ATOM     55  C   ACE d          11.581  -9.188   4.806  0.00  0.00     0.238 C 
ATOM     56  O   ACE d          10.982  -9.888   5.602  0.00  0.00    -0.271 OA
ATOM     57  N   ACE d          12.736  -9.555   4.290  0.00  0.00    -0.368 N 
ATOM     58  H29 ACE d          13.096 -10.470   4.471  0.00  0.00     0.159 HD
ATOM     59  H30 ACE d          13.252  -8.919   3.716  0.00  0.00     0.159 HD
ENDBRANCH  53  55
BRANCH  53  60
ATOM     60  CB  ACE d          11.561  -6.724   5.529  0.00  0.00     0.036 C 
ATOM     61  H25 ACE d          11.349  -7.087   6.545  0.00  0.00     0.051 H 
ATOM     62  H26 ACE d          11.021  -5.781   5.357  0.00  0.00     0.051 H 
BRANCH  60  63
ATOM     63  CG  ACE d          13.089  -6.462   5.396  0.00  0.00     0.217 C 
ATOM     64  OD1 ACE d          13.559  -6.059   4.306  0.00  0.00    -0.274 OA
ATOM     65  ND2 ACE d          13.797  -6.692   6.492  0.00  0.00    -0.370 N 
ATOM     66  H27 ACE d          14.787  -6.548   6.486  0.00  0.00     0.159 HD
ATOM     67  H28 ACE d          13.342  -7.012   7.323  0.00  0.00     0.159 HD
ENDBRANCH  60  63
ENDBRANCH  53  60
ENDBRANCH  51  53
ENDBRANCH   6  49
TORSDOF 13
ENDMDL
MODEL 8
REMARK VINA RESULT:      -4.0      4.028      8.137
REMARK  13 active torsions:
REMARK  status: ('A' for Active; 'I' for Inactive)
REMARK    1  A    between atoms: C_1  and  CH3_3 
REMARK       I    between atoms: N_4  and  C_1 
REMARK    2  A    between atoms: CA_5  and  N_4 
REMARK    3  A    between atoms: C_6  and  CA_5 
REMARK    4  A    between atoms: CA_5  and  CB_8 
REMARK       I    between atoms: N_26  and  C_6 
REMARK    5  A    between atoms: CB_8  and  CG_9 
REMARK    6  A    between atoms: CZ_14  and  OH_15 
REMARK    7  A    between atoms: OH_15  and  P_16 
REMARK    8  A    between atoms: CA_28  and  N_26 
REMARK    9  A    between atoms: C_27  and  CA_28 
REMARK       I    between atoms: C_27  and  N_29 
REMARK   10  A    between atoms: N_29  and  CA_30 
REMARK   11  A    between atoms: CA_30  and  C_31 
REMARK   12  A    between atoms: CA_30  and  CB_33 
REMARK       I    between atoms: C_31  and  N_37 
REMARK   13  A    between atoms: CB_33  and  CG_34 
REMARK       I    between atoms: CG_34  and  ND2_36 
ROOT
ATOM      1  CD  ACE d          10.953  -5.100  -5.033  0.00  0.00    -0.065 C 
ATOM      2  CG  ACE d          10.251  -6.484  -5.061  0.00  0.00    -0.062 C 
ATOM      3  CE  ACE d          10.789  -4.476  -3.634  0.00  0.00    -0.062 C 
ATOM      4  CB  ACE d           8.732  -6.398  -4.700  0.00  0.00    -0.033 C 
ATOM      5  CH  ACE d           9.306  -4.431  -3.220  0.00  0.00    -0.033 C 
ATOM      6  CA  ACE d           8.528  -5.758  -3.314  0.00  0.00     0.114 C 
ATOM      7  H12 ACE d          10.497  -4.441  -5.786  0.00  0.00     0.033 H 
ATOM      8  H13 ACE d          12.023  -5.226  -5.256  0.00  0.00     0.033 H 
ATOM      9  H14 ACE d          10.749  -7.146  -4.337  0.00  0.00     0.033 H 
ATOM     10  H15 ACE d          10.350  -6.908  -6.072  0.00  0.00     0.033 H 
ATOM     11  H16 ACE d          11.190  -3.452  -3.647  0.00  0.00     0.033 H 
ATOM     12  H17 ACE d          11.348  -5.080  -2.903  0.00  0.00     0.033 H 
ATOM     13  H18 ACE d           8.306  -7.412  -4.694  0.00  0.00     0.037 H 
ATOM     14  H19 ACE d           8.217  -5.788  -5.457  0.00  0.00     0.037 H 
ATOM     15  H20 ACE d           8.800  -3.700  -3.867  0.00  0.00     0.037 H 
ATOM     16  H21 ACE d           9.260  -4.090  -2.176  0.00  0.00     0.037 H 
ENDROOT
BRANCH   6  17
ATOM     17  N   ACE d           9.066  -6.619  -2.255  0.00  0.00    -0.341 N 
ATOM     18  C   ACE d           8.732  -7.895  -2.108  0.00  0.00     0.241 C 
ATOM     19  O   ACE d           7.972  -8.494  -2.853  0.00  0.00    -0.271 OA
ATOM     20  H22 ACE d           9.719  -6.223  -1.609  0.00  0.00     0.163 HD
BRANCH  18  21
ATOM     21  CA  ACE d           9.366  -8.602  -0.919  0.00  0.00     0.093 C 
ATOM     22  H5  ACE d           8.635  -9.279  -0.452  0.00  0.00     0.088 H 
BRANCH  21  23
ATOM     23  N   ACE d          10.539  -9.374  -1.409  0.00  0.00    -0.348 N 
ATOM     24  C   ACE d          10.398 -10.644  -1.829  0.00  0.00     0.214 C 
ATOM     25  O   ACE d           9.314 -11.238  -1.882  0.00  0.00    -0.274 OA
ATOM     26  H4  ACE d          11.442  -8.944  -1.427  0.00  0.00     0.163 HD
BRANCH  24  27
ATOM     27  CH3 ACE d          11.693 -11.363  -2.284  0.00  0.00    -0.003 C 
ATOM     28  H1  ACE d          11.682 -11.481  -3.378  0.00  0.00     0.040 H 
ATOM     29  H2  ACE d          11.748 -12.354  -1.809  0.00  0.00     0.040 H 
ATOM     30  H3  ACE d          12.567 -10.766  -1.988  0.00  0.00     0.040 H 
ENDBRANCH  24  27
ENDBRANCH  21  23
BRANCH  21  31
ATOM     31  CB  ACE d           9.864  -7.549   0.134  0.00  0.00    -0.014 C 
ATOM     32  H6  ACE d           9.680  -6.536  -0.252  0.00  0.00     0.043 H 
ATOM     33  H7  ACE d          10.942  -7.688   0.303  0.00  0.00     0.043 H 
BRANCH  31  34
ATOM     34  CG  ACE d           9.121  -7.726   1.454  0.00  0.00    -0.056 A 
ATOM     35  CD1 ACE d           7.928  -7.050   1.623  0.00  0.00    -0.074 A 
ATOM     36  CE1 ACE d           7.289  -7.131   2.861  0.00  0.00    -0.050 A 
ATOM     37  H8  ACE d           7.499  -6.470   0.814  0.00  0.00     0.084 H 
ATOM     38  CZ  ACE d           7.835  -7.918   3.898  0.00  0.00     0.082 A 
ATOM     39  H10 ACE d           6.366  -6.587   3.027  0.00  0.00     0.087 H 
ATOM     40  CE2 ACE d           9.037  -8.594   3.741  0.00  0.00    -0.050 A 
ATOM     41  CD2 ACE d           9.682  -8.534   2.483  0.00  0.00    -0.074 A 
ATOM     42  H11 ACE d           9.470  -9.154   4.563  0.00  0.00     0.087 H 
ATOM     43  H9  ACE d          10.592  -9.096   2.305  0.00  0.00     0.084 H 
BRANCH  38  44
ATOM     44  OH  ACE d           7.073  -7.882   5.045  0.00  0.00    -0.240 OA
BRANCH  44  45
ATOM     45  P   ACE d           5.420  -7.869   5.046  0.00  0.00     0.427 P 
ATOM     46  O1P ACE d           5.080  -8.683   6.354  0.00  0.00    -0.617 OA
ATOM     47  O2P ACE d           4.875  -6.510   5.143  0.00  0.00    -0.617 OA
ATOM     48  O3P ACE d           4.982  -8.659   3.873  0.00  0.00    -0.617 OA
ENDBRANCH  44  45
ENDBRANCH  38  44
ENDBRANCH  31  34
ENDBRANCH  21  31
ENDBRANCH  18  21
ENDBRANCH   6  17
BRANCH   6  49
ATOM     49  C   ACE d           6.991  -5.612  -3.105  0.00  0.00     0.246 C 
ATOM     50  O   ACE d           6.171  -5.443  -4.059  0.00  0.00    -0.271 OA
ATOM     51  N   ACE d           6.589  -5.813  -1.831  0.00  0.00    -0.345 N 
ATOM     52  H23 ACE d           7.272  -5.989  -1.122  0.00  0.00     0.163 HD
BRANCH  51  53
ATOM     53  CA  ACE d           5.164  -5.778  -1.468  0.00  0.00     0.097 C 
ATOM     54  H24 ACE d           4.654  -5.128  -2.195  0.00  0.00     0.088 H 
BRANCH  53  55
ATOM     55  C   ACE d           4.920  -5.172  -0.090  0.00  0.00     0.238 C 
ATOM     56  O   ACE d           5.863  -4.776   0.572  0.00  0.00    -0.271 OA
ATOM     57  N   ACE d           3.697  -5.213   0.400  0.00  0.00    -0.368 N 
ATOM     58  H29 ACE d           3.506  -4.824   1.301  0.00  0.00     0.159 HD
ATOM     59  H30 ACE d           2.960  -5.634  -0.129  0.00  0.00     0.159 HD
ENDBRANCH  53  55
BRANCH  53  60
ATOM     60  CB  ACE d           4.563  -7.204  -1.618  0.00  0.00     0.036 C 
ATOM     61  H25 ACE d           4.848  -7.611  -2.599  0.00  0.00     0.051 H 
ATOM     62  H26 ACE d           3.466  -7.139  -1.554  0.00  0.00     0.051 H 
BRANCH  60  63
ATOM     63  CG  ACE d           5.077  -8.162  -0.506  0.00  0.00     0.217 C 
ATOM     64  OD1 ACE d           4.624  -8.065   0.659  0.00  0.00    -0.274 OA
ATOM     65  ND2 ACE d           5.988  -9.041  -0.896  0.00  0.00    -0.370 N 
ATOM     66  H27 ACE d           6.369  -9.692  -0.239  0.00  0.00     0.159 HD
ATOM     67  H28 ACE d           6.295  -9.054  -1.848  0.00  0.00     0.159 HD
ENDBRANCH  60  63
ENDBRANCH  53  60
ENDBRANCH  51  53
ENDBRANCH   6  49
TORSDOF 13
ENDMDL
MODEL 9
REMARK VINA RESULT:      -3.8      3.775      8.687
REMARK  13 active torsions:
REMARK  status: ('A' for Active; 'I' for Inactive)
REMARK    1  A    between atoms: C_1  and  CH3_3 
REMARK       I    between atoms: N_4  and  C_1 
REMARK    2  A    between atoms: CA_5  and  N_4 
REMARK    3  A    between atoms: C_6  and  CA_5 
REMARK    4  A    between atoms: CA_5  and  CB_8 
REMARK       I    between atoms: N_26  and  C_6 
REMARK    5  A    between atoms: CB_8  and  CG_9 
REMARK    6  A    between atoms: CZ_14  and  OH_15 
REMARK    7  A    between atoms: OH_15  and  P_16 
REMARK    8  A    between atoms: CA_28  and  N_26 
REMARK    9  A    between atoms: C_27  and  CA_28 
REMARK       I    between atoms: C_27  and  N_29 
REMARK   10  A    between atoms: N_29  and  CA_30 
REMARK   11  A    between atoms: CA_30  and  C_31 
REMARK   12  A    between atoms: CA_30  and  CB_33 
REMARK       I    between atoms: C_31  and  N_37 
REMARK   13  A    between atoms: CB_33  and  CG_34 
REMARK       I    between atoms: CG_34  and  ND2_36 
ROOT
ATOM      1  CD  ACE d          12.103 -10.061  -2.908  0.00  0.00    -0.065 C 
ATOM      2  CG  ACE d          10.709 -10.646  -2.557  0.00  0.00    -0.062 C 
ATOM      3  CE  ACE d          12.173  -8.596  -2.437  0.00  0.00    -0.062 C 
ATOM      4  CB  ACE d           9.535  -9.833  -3.195  0.00  0.00    -0.033 C 
ATOM      5  CH  ACE d          10.994  -7.779  -2.999  0.00  0.00    -0.033 C 
ATOM      6  CA  ACE d           9.585  -8.356  -2.762  0.00  0.00     0.114 C 
ATOM      7  H12 ACE d          12.257 -10.105  -3.997  0.00  0.00     0.033 H 
ATOM      8  H13 ACE d          12.886 -10.647  -2.404  0.00  0.00     0.033 H 
ATOM      9  H14 ACE d          10.590 -10.639  -1.464  0.00  0.00     0.033 H 
ATOM     10  H15 ACE d          10.660 -11.682  -2.924  0.00  0.00     0.033 H 
ATOM     11  H16 ACE d          13.117  -8.151  -2.783  0.00  0.00     0.033 H 
ATOM     12  H17 ACE d          12.136  -8.571  -1.337  0.00  0.00     0.033 H 
ATOM     13  H18 ACE d           8.579 -10.270  -2.873  0.00  0.00     0.037 H 
ATOM     14  H19 ACE d           9.613  -9.889  -4.291  0.00  0.00     0.037 H 
ATOM     15  H20 ACE d          11.140  -7.686  -4.085  0.00  0.00     0.037 H 
ATOM     16  H21 ACE d          11.029  -6.781  -2.538  0.00  0.00     0.037 H 
ENDROOT
BRANCH   6  17
ATOM     17  N   ACE d           9.330  -8.223  -1.323  0.00  0.00    -0.341 N 
ATOM     18  C   ACE d           9.492  -7.089  -0.653  0.00  0.00     0.241 C 
ATOM     19  O   ACE d           9.836  -6.034  -1.165  0.00  0.00    -0.271 OA
ATOM     20  H22 ACE d           9.017  -9.029  -0.821  0.00  0.00     0.163 HD
BRANCH  18  21
ATOM     21  CA  ACE d           9.218  -7.169   0.842  0.00  0.00     0.093 C 
ATOM     22  H5  ACE d           8.428  -7.908   1.039  0.00  0.00     0.088 H 
BRANCH  21  23
ATOM     23  N   ACE d          10.478  -7.570   1.524  0.00  0.00    -0.348 N 
ATOM     24  C   ACE d          10.444  -8.217   2.703  0.00  0.00     0.214 C 
ATOM     25  O   ACE d           9.401  -8.558   3.274  0.00  0.00    -0.274 OA
ATOM     26  H4  ACE d          11.359  -7.357   1.101  0.00  0.00     0.163 HD
BRANCH  24  27
ATOM     27  CH3 ACE d          11.815  -8.553   3.340  0.00  0.00    -0.003 C 
ATOM     28  H1  ACE d          12.276  -9.392   2.798  0.00  0.00     0.040 H 
ATOM     29  H2  ACE d          11.671  -8.833   4.394  0.00  0.00     0.040 H 
ATOM     30  H3  ACE d          12.472  -7.673   3.281  0.00  0.00     0.040 H 
ENDBRANCH  24  27
ENDBRANCH  21  23
BRANCH  21  31
ATOM     31  CB  ACE d           8.780  -5.763   1.387  0.00  0.00    -0.014 C 
ATOM     32  H6  ACE d           8.291  -5.198   0.580  0.00  0.00     0.043 H 
ATOM     33  H7  ACE d           9.669  -5.216   1.733  0.00  0.00     0.043 H 
BRANCH  31  34
ATOM     34  CG  ACE d           7.805  -5.925   2.549  0.00  0.00    -0.056 A 
ATOM     35  CD1 ACE d           6.724  -6.769   2.376  0.00  0.00    -0.074 A 
ATOM     36  CE1 ACE d           5.777  -6.851   3.397  0.00  0.00    -0.050 A 
ATOM     37  H8  ACE d           6.614  -7.352   1.469  0.00  0.00     0.084 H 
ATOM     38  CZ  ACE d           5.945  -6.116   4.591  0.00  0.00     0.082 A 
ATOM     39  H10 ACE d           4.906  -7.485   3.274  0.00  0.00     0.087 H 
ATOM     40  CE2 ACE d           7.022  -5.260   4.770  0.00  0.00    -0.050 A 
ATOM     41  CD2 ACE d           7.999  -5.184   3.749  0.00  0.00    -0.074 A 
ATOM     42  H11 ACE d           7.113  -4.663   5.671  0.00  0.00     0.087 H 
ATOM     43  H9  ACE d           8.883  -4.571   3.878  0.00  0.00     0.084 H 
BRANCH  38  44
ATOM     44  OH  ACE d           4.917  -6.320   5.485  0.00  0.00    -0.240 OA
BRANCH  44  45
ATOM     45  P   ACE d           4.680  -7.737   6.300  0.00  0.00     0.427 P 
ATOM     46  O1P ACE d           4.106  -7.237   7.682  0.00  0.00    -0.617 OA
ATOM     47  O2P ACE d           3.701  -8.605   5.633  0.00  0.00    -0.617 OA
ATOM     48  O3P ACE d           6.016  -8.330   6.533  0.00  0.00    -0.617 OA
ENDBRANCH  44  45
ENDBRANCH  38  44
ENDBRANCH  31  34
ENDBRANCH  21  31
ENDBRANCH  18  21
ENDBRANCH   6  17
BRANCH   6  49
ATOM     49  C   ACE d           8.455  -7.618  -3.539  0.00  0.00     0.246 C 
ATOM     50  O   ACE d           8.343  -7.650  -4.803  0.00  0.00    -0.271 OA
ATOM     51  N   ACE d           7.523  -7.049  -2.744  0.00  0.00    -0.345 N 
ATOM     52  H23 ACE d           7.632  -7.091  -1.751  0.00  0.00     0.163 HD
BRANCH  51  53
ATOM     53  CA  ACE d           6.350  -6.367  -3.313  0.00  0.00     0.097 C 
ATOM     54  H24 ACE d           6.245  -6.704  -4.354  0.00  0.00     0.088 H 
BRANCH  53  55
ATOM     55  C   ACE d           6.513  -4.851  -3.357  0.00  0.00     0.238 C 
ATOM     56  O   ACE d           5.760  -4.182  -4.043  0.00  0.00    -0.271 OA
ATOM     57  N   ACE d           7.552  -4.319  -2.747  0.00  0.00    -0.368 N 
ATOM     58  H29 ACE d           7.686  -3.327  -2.759  0.00  0.00     0.159 HD
ATOM     59  H30 ACE d           8.208  -4.906  -2.273  0.00  0.00     0.159 HD
ENDBRANCH  53  55
BRANCH  53  60
ATOM     60  CB  ACE d           5.075  -6.818  -2.547  0.00  0.00     0.036 C 
ATOM     61  H25 ACE d           4.354  -7.233  -3.266  0.00  0.00     0.051 H 
ATOM     62  H26 ACE d           4.631  -5.945  -2.046  0.00  0.00     0.051 H 
BRANCH  60  63
ATOM     63  CG  ACE d           5.401  -7.900  -1.478  0.00  0.00     0.217 C 
ATOM     64  OD1 ACE d           6.053  -8.920  -1.804  0.00  0.00    -0.274 OA
ATOM     65  ND2 ACE d           4.948  -7.644  -0.260  0.00  0.00    -0.370 N 
ATOM     66  H27 ACE d           5.117  -8.293   0.483  0.00  0.00     0.159 HD
ATOM     67  H28 ACE d           4.437  -6.803  -0.083  0.00  0.00     0.159 HD
ENDBRANCH  60  63
ENDBRANCH  53  60
ENDBRANCH  51  53
ENDBRANCH   6  49
TORSDOF 13
ENDMDL
MODEL 10
REMARK VINA RESULT:      -3.6      4.341      8.621
REMARK  13 active torsions:
REMARK  status: ('A' for Active; 'I' for Inactive)
REMARK    1  A    between atoms: C_1  and  CH3_3 
REMARK       I    between atoms: N_4  and  C_1 
REMARK    2  A    between atoms: CA_5  and  N_4 
REMARK    3  A    between atoms: C_6  and  CA_5 
REMARK    4  A    between atoms: CA_5  and  CB_8 
REMARK       I    between atoms: N_26  and  C_6 
REMARK    5  A    between atoms: CB_8  and  CG_9 
REMARK    6  A    between atoms: CZ_14  and  OH_15 
REMARK    7  A    between atoms: OH_15  and  P_16 
REMARK    8  A    between atoms: CA_28  and  N_26 
REMARK    9  A    between atoms: C_27  and  CA_28 
REMARK       I    between atoms: C_27  and  N_29 
REMARK   10  A    between atoms: N_29  and  CA_30 
REMARK   11  A    between atoms: CA_30  and  C_31 
REMARK   12  A    between atoms: CA_30  and  CB_33 
REMARK       I    between atoms: C_31  and  N_37 
REMARK   13  A    between atoms: CB_33  and  CG_34 
REMARK       I    between atoms: CG_34  and  ND2_36 
ROOT
ATOM      1  CD  ACE d          10.884  -9.894  -2.371  0.00  0.00    -0.065 C 
ATOM      2  CG  ACE d           9.632 -10.110  -1.479  0.00  0.00    -0.062 C 
ATOM      3  CE  ACE d          11.188  -8.387  -2.463  0.00  0.00    -0.062 C 
ATOM      4  CB  ACE d           8.372  -9.352  -2.013  0.00  0.00    -0.033 C 
ATOM      5  CH  ACE d           9.947  -7.601  -2.929  0.00  0.00    -0.033 C 
ATOM      6  CA  ACE d           8.646  -7.842  -2.138  0.00  0.00     0.114 C 
ATOM      7  H12 ACE d          10.691 -10.293  -3.378  0.00  0.00     0.033 H 
ATOM      8  H13 ACE d          11.745 -10.417  -1.929  0.00  0.00     0.033 H 
ATOM      9  H14 ACE d           9.857  -9.749  -0.464  0.00  0.00     0.033 H 
ATOM     10  H15 ACE d           9.407 -11.186  -1.443  0.00  0.00     0.033 H 
ATOM     11  H16 ACE d          12.005  -8.228  -3.182  0.00  0.00     0.033 H 
ATOM     12  H17 ACE d          11.495  -8.020  -1.472  0.00  0.00     0.033 H 
ATOM     13  H18 ACE d           7.537  -9.508  -1.315  0.00  0.00     0.037 H 
ATOM     14  H19 ACE d           8.105  -9.752  -3.002  0.00  0.00     0.037 H 
ATOM     15  H20 ACE d           9.756  -7.870  -3.978  0.00  0.00     0.037 H 
ATOM     16  H21 ACE d          10.186  -6.530  -2.863  0.00  0.00     0.037 H 
ENDROOT
BRANCH   6  17
ATOM     17  N   ACE d           8.857  -7.235  -0.819  0.00  0.00    -0.341 N 
ATOM     18  C   ACE d           8.774  -5.931  -0.592  0.00  0.00     0.241 C 
ATOM     19  O   ACE d           8.482  -5.104  -1.443  0.00  0.00    -0.271 OA
ATOM     20  H22 ACE d           9.075  -7.837  -0.050  0.00  0.00     0.163 HD
BRANCH  18  21
ATOM     21  CA  ACE d           9.071  -5.497   0.837  0.00  0.00     0.093 C 
ATOM     22  H5  ACE d           9.855  -4.725   0.838  0.00  0.00     0.088 H 
BRANCH  21  23
ATOM     23  N   ACE d           7.818  -4.957   1.429  0.00  0.00    -0.348 N 
ATOM     24  C   ACE d           6.643  -5.580   1.231  0.00  0.00     0.214 C 
ATOM     25  O   ACE d           6.518  -6.637   0.601  0.00  0.00    -0.274 OA
ATOM     26  H4  ACE d           7.850  -4.122   1.979  0.00  0.00     0.163 HD
BRANCH  24  27
ATOM     27  CH3 ACE d           5.396  -4.910   1.863  0.00  0.00    -0.003 C 
ATOM     28  H1  ACE d           4.982  -5.566   2.642  0.00  0.00     0.040 H 
ATOM     29  H2  ACE d           4.638  -4.740   1.085  0.00  0.00     0.040 H 
ATOM     30  H3  ACE d           5.685  -3.947   2.309  0.00  0.00     0.040 H 
ENDBRANCH  24  27
ENDBRANCH  21  23
BRANCH  21  31
ATOM     31  CB  ACE d           9.537  -6.730   1.690  0.00  0.00    -0.014 C 
ATOM     32  H6  ACE d          10.578  -6.577   2.010  0.00  0.00     0.043 H 
ATOM     33  H7  ACE d           9.472  -7.640   1.076  0.00  0.00     0.043 H 
BRANCH  31  34
ATOM     34  CG  ACE d           8.650  -6.889   2.921  0.00  0.00    -0.056 A 
ATOM     35  CD1 ACE d           7.936  -8.064   3.058  0.00  0.00    -0.074 A 
ATOM     36  CE1 ACE d           7.052  -8.181   4.131  0.00  0.00    -0.050 A 
ATOM     37  H8  ACE d           8.060  -8.876   2.351  0.00  0.00     0.084 H 
ATOM     38  CZ  ACE d           6.923  -7.134   5.070  0.00  0.00     0.082 A 
ATOM     39  H10 ACE d           6.460  -9.082   4.245  0.00  0.00     0.087 H 
ATOM     40  CE2 ACE d           7.629  -5.947   4.936  0.00  0.00    -0.050 A 
ATOM     41  CD2 ACE d           8.544  -5.827   3.862  0.00  0.00    -0.074 A 
ATOM     42  H11 ACE d           7.483  -5.132   5.636  0.00  0.00     0.087 H 
ATOM     43  H9  ACE d           9.155  -4.938   3.758  0.00  0.00     0.084 H 
BRANCH  38  44
ATOM     44  OH  ACE d           6.008  -7.422   6.058  0.00  0.00    -0.240 OA
BRANCH  44  45
ATOM     45  P   ACE d           5.071  -6.280   6.799  0.00  0.00     0.427 P 
ATOM     46  O1P ACE d           4.099  -7.162   7.676  0.00  0.00    -0.617 OA
ATOM     47  O2P ACE d           5.857  -5.390   7.662  0.00  0.00    -0.617 OA
ATOM     48  O3P ACE d           4.277  -5.619   5.740  0.00  0.00    -0.617 OA
ENDBRANCH  44  45
ENDBRANCH  38  44
ENDBRANCH  31  34
ENDBRANCH  21  31
ENDBRANCH  18  21
ENDBRANCH   6  17
BRANCH   6  49
ATOM     49  C   ACE d           7.381  -7.205  -2.784  0.00  0.00     0.246 C 
ATOM     50  O   ACE d           7.354  -6.757  -3.970  0.00  0.00    -0.271 OA
ATOM     51  N   ACE d           6.271  -7.290  -2.017  0.00  0.00    -0.345 N 
ATOM     52  H23 ACE d           6.334  -7.694  -1.105  0.00  0.00     0.163 HD
BRANCH  51  53
ATOM     53  CA  ACE d           4.973  -6.796  -2.500  0.00  0.00     0.097 C 
ATOM     54  H24 ACE d           4.980  -6.867  -3.598  0.00  0.00     0.088 H 
BRANCH  53  55
ATOM     55  C   ACE d           4.733  -5.330  -2.157  0.00  0.00     0.238 C 
ATOM     56  O   ACE d           3.691  -4.997  -1.620  0.00  0.00    -0.271 OA
ATOM     57  N   ACE d           5.613  -4.442  -2.572  0.00  0.00    -0.368 N 
ATOM     58  H29 ACE d           5.483  -3.472  -2.363  0.00  0.00     0.159 HD
ATOM     59  H30 ACE d           6.412  -4.737  -3.097  0.00  0.00     0.159 HD
ENDBRANCH  53  55
BRANCH  53  60
ATOM     60  CB  ACE d           3.845  -7.733  -1.981  0.00  0.00     0.036 C 
ATOM     61  H25 ACE d           3.425  -8.291  -2.831  0.00  0.00     0.051 H 
ATOM     62  H26 ACE d           3.056  -7.121  -1.519  0.00  0.00     0.051 H 
BRANCH  60  63
ATOM     63  CG  ACE d           4.380  -8.745  -0.928  0.00  0.00     0.217 C 
ATOM     64  OD1 ACE d           5.028  -9.750  -1.304  0.00  0.00    -0.274 OA
ATOM     65  ND2 ACE d           4.099  -8.450   0.332  0.00  0.00    -0.370 N 
ATOM     66  H27 ACE d           4.408  -9.052   1.068  0.00  0.00     0.159 HD
ATOM     67  H28 ACE d           3.576  -7.624   0.547  0.00  0.00     0.159 HD
ENDBRANCH  60  63
ENDBRANCH  53  60
ENDBRANCH  51  53
ENDBRANCH   6  49
TORSDOF 13
ENDMDL
