MODEL 1
REMARK VINA RESULT:      -6.0      0.000      0.000
REMARK  4 active torsions:
REMARK  status: ('A' for Active; 'I' for Inactive)
REMARK    1  A    between atoms: C15_2  and  C16_23 
REMARK    2  A    between atoms: C04_13  and  C02_11 
REMARK    3  A    between atoms: N08_17  and  C07_16 
REMARK    4  A    between atoms: C09_18  and  N08_17 
ROOT
ATOM      1  C13 ZZL d           4.771 -10.436  -6.181  0.00  0.00     0.043 C 
ATOM      2  C15 ZZL d           2.634 -10.946  -5.143  0.00  0.00     0.079 C 
ATOM      3  C24 ZZL d           3.098 -11.671  -3.904  0.00  0.00     0.007 A 
ATOM      4  C26 ZZL d           2.815 -13.406  -2.276  0.00  0.00     0.035 A 
ATOM      5  C28 ZZL d           3.957 -12.948  -1.589  0.00  0.00    -0.061 A 
ATOM      6  C09 ZZL d           6.562  -8.518  -2.881  0.00  0.00     0.727 A 
ATOM      7  N10 ZZL d           6.826  -8.095  -4.174  0.00  0.00    -0.074 NA
ATOM      8  C11 ZZL d           6.229  -8.728  -5.211  0.00  0.00     0.031 A 
ATOM      9  C12 ZZL d           5.377  -9.749  -4.951  0.00  0.00     0.010 A 
ATOM     10  N14 ZZL d           3.335 -10.462  -6.078  0.00  0.00    -0.283 NA
ATOM     11  C25 ZZL d           2.380 -12.758  -3.437  0.00  0.00    -0.049 A 
ATOM     12 CL1  ZZL d           1.914 -14.844  -1.733  0.00  0.00    -0.084 Cl
ATOM     13  C29 ZZL d           4.675 -11.845  -2.063  0.00  0.00    -0.068 A 
ATOM     14  C30 ZZL d           4.232 -11.207  -3.225  0.00  0.00     0.007 A 
ATOM     15  C31 ZZL d           5.101 -10.167  -3.636  0.00  0.00     0.096 A 
ATOM     16  N32 ZZL d           5.691  -9.575  -2.614  0.00  0.00    -0.061 NA
ATOM     17  H1  ZZL d           5.148 -11.467  -6.245  0.00  0.00     0.074 H 
ATOM     18  H2  ZZL d           5.060  -9.883  -7.087  0.00  0.00     0.074 H 
ATOM     19  H5  ZZL d           4.282 -13.455  -0.687  0.00  0.00     0.086 H 
ATOM     20  H9  ZZL d           6.429  -8.422  -6.232  0.00  0.00     0.116 H 
ATOM     21  H11 ZZL d           1.495 -13.101  -3.961  0.00  0.00     0.087 H 
ATOM     22  H12 ZZL d           5.556 -11.492  -1.540  0.00  0.00     0.085 H 
ENDROOT
BRANCH   6  23
ATOM     23  N08 ZZL d           7.241  -7.887  -1.784  0.00  0.00    -0.188 N 
ATOM     24  H8  ZZL d           7.803  -8.556  -1.238  0.00  0.00     0.184 HD
BRANCH  23  25
ATOM     25  C07 ZZL d           7.328  -6.548  -1.260  0.00  0.00     0.049 A 
ATOM     26  C06 ZZL d           8.307  -5.692  -1.784  0.00  0.00    -0.056 A 
ATOM     27  C05 ZZL d           8.342  -4.358  -1.376  0.00  0.00    -0.064 A 
ATOM     28  H7  ZZL d           9.031  -6.064  -2.500  0.00  0.00     0.087 H 
ATOM     29  C04 ZZL d           7.398  -3.906  -0.450  0.00  0.00     0.041 A 
ATOM     30  H6  ZZL d           9.090  -3.681  -1.772  0.00  0.00     0.085 H 
ATOM     31  C34 ZZL d           6.423  -4.761   0.066  0.00  0.00    -0.064 A 
ATOM     32  C33 ZZL d           6.383  -6.095  -0.344  0.00  0.00    -0.056 A 
ATOM     33  H14 ZZL d           5.699  -4.390   0.783  0.00  0.00     0.085 H 
ATOM     34  H13 ZZL d           5.626  -6.767   0.045  0.00  0.00     0.087 H 
BRANCH  29  35
ATOM     35  C02 ZZL d           7.436  -2.460  -0.001  0.00  0.00     0.209 C 
ATOM     36  O01 ZZL d           8.197  -1.720  -0.520  0.00  0.00    -0.644 OA
ATOM     37  O03 ZZL d           6.580  -2.024   1.012  0.00  0.00    -0.644 OA
ENDBRANCH  29  35
ENDBRANCH  23  25
ENDBRANCH   6  23
BRANCH   2  38
ATOM     38  C16 ZZL d           1.116 -10.825  -5.135  0.00  0.00     0.070 A 
ATOM     39  C17 ZZL d           0.341 -11.637  -5.966  0.00  0.00     0.132 A 
ATOM     40  F18 ZZL d           0.936 -12.600  -6.721  0.00  0.00    -0.205 F 
ATOM     41  C19 ZZL d          -1.050 -11.490  -5.996  0.00  0.00    -0.045 A 
ATOM     42  C20 ZZL d          -1.677 -10.533  -5.191  0.00  0.00    -0.077 A 
ATOM     43  H10 ZZL d          -1.645 -12.120  -6.647  0.00  0.00     0.088 H 
ATOM     44  C21 ZZL d          -0.905  -9.721  -4.354  0.00  0.00    -0.045 A 
ATOM     45  H3  ZZL d          -2.755 -10.423  -5.215  0.00  0.00     0.083 H 
ATOM     46  C22 ZZL d           0.489  -9.865  -4.331  0.00  0.00     0.132 A 
ATOM     47  H4  ZZL d          -1.384  -8.980  -3.725  0.00  0.00     0.088 H 
ATOM     48  F23 ZZL d           1.236  -9.092  -3.492  0.00  0.00    -0.205 F 
ENDBRANCH   2  38
TORSDOF 4
ENDMDL
