MODEL 1
REMARK VINA RESULT:      -5.7      0.000      0.000
REMARK  4 active torsions:
REMARK  status: ('A' for Active; 'I' for Inactive)
REMARK    1  A    between atoms: C1_7  and  P1_1 
REMARK    2  A    between atoms: N1_10  and  C1_7 
REMARK    3  A    between atoms: C2_8  and  C3_9 
REMARK    4  A    between atoms: C2_8  and  N1_10 
ROOT
ATOM      1  N1  GPJ d          59.979   7.945  29.387  0.00  0.00    -0.053 N 
ATOM      2  H5  GPJ d          60.934   8.265  29.426  0.00  0.00     0.278 HD
ATOM      3  H6  GPJ d          59.964   6.945  29.261  0.00  0.00     0.278 HD
ENDROOT
BRANCH   1   4
ATOM      4  C1  GPJ d          59.387   8.529  28.189  0.00  0.00     0.183 C 
ATOM      5  H1  GPJ d          58.832   7.749  27.647  0.00  0.00     0.097 H 
ATOM      6  H2  GPJ d          58.695   9.331  28.486  0.00  0.00     0.097 H 
BRANCH   4   7
ATOM      7  P1  GPJ d          60.596   9.188  27.147  0.00  0.00     0.285 P 
ATOM      8  O1  GPJ d          61.588   9.926  27.981  0.00  0.00    -0.638 OA
ATOM      9  O2  GPJ d          59.813  10.061  26.231  0.00  0.00    -0.638 OA
ATOM     10  O3  GPJ d          61.242   8.058  26.413  0.00  0.00    -0.638 OA
ENDBRANCH   4   7
ENDBRANCH   1   4
BRANCH   1  11
ATOM     11  C2  GPJ d          59.386   8.215  30.709  0.00  0.00     0.161 C 
ATOM     12  H3  GPJ d          58.544   8.912  30.589  0.00  0.00     0.092 H 
ATOM     13  H4  GPJ d          59.022   7.271  31.139  0.00  0.00     0.092 H 
BRANCH  11  14
ATOM     14  C3  GPJ d          60.407   8.826  31.645  0.00  0.00     0.199 C 
ATOM     15  O4  GPJ d          61.090   9.833  31.252  0.00  0.00    -0.647 OA
ATOM     16  O5  GPJ d          60.513   8.316  32.750  0.00  0.00    -0.647 OA
ENDBRANCH  11  14
ENDBRANCH   1  11
TORSDOF 4
ENDMDL
MODEL 2
REMARK VINA RESULT:      -5.7      0.271      1.378
REMARK  4 active torsions:
REMARK  status: ('A' for Active; 'I' for Inactive)
REMARK    1  A    between atoms: C1_7  and  P1_1 
REMARK    2  A    between atoms: N1_10  and  C1_7 
REMARK    3  A    between atoms: C2_8  and  C3_9 
REMARK    4  A    between atoms: C2_8  and  N1_10 
ROOT
ATOM      1  N1  GPJ d          59.931   8.002  29.453  0.00  0.00    -0.053 N 
ATOM      2  H5  GPJ d          60.923   8.183  29.453  0.00  0.00     0.278 HD
ATOM      3  H6  GPJ d          59.767   7.026  29.646  0.00  0.00     0.278 HD
ENDROOT
BRANCH   1   4
ATOM      4  C1  GPJ d          59.458   8.246  28.094  0.00  0.00     0.183 C 
ATOM      5  H1  GPJ d          59.263   7.281  27.604  0.00  0.00     0.097 H 
ATOM      6  H2  GPJ d          58.527   8.830  28.139  0.00  0.00     0.097 H 
BRANCH   4   7
ATOM      7  P1  GPJ d          60.626   9.121  27.170  0.00  0.00     0.285 P 
ATOM      8  O1  GPJ d          59.906  10.085  26.289  0.00  0.00    -0.638 OA
ATOM      9  O2  GPJ d          61.342   8.047  26.429  0.00  0.00    -0.638 OA
ATOM     10  O3  GPJ d          61.533   9.832  28.122  0.00  0.00    -0.638 OA
ENDBRANCH   4   7
ENDBRANCH   1   4
BRANCH   1  11
ATOM     11  C2  GPJ d          59.359   8.760  30.579  0.00  0.00     0.161 C 
ATOM     12  H3  GPJ d          58.963   9.715  30.205  0.00  0.00     0.092 H 
ATOM     13  H4  GPJ d          58.544   8.176  31.029  0.00  0.00     0.092 H 
BRANCH  11  14
ATOM     14  C3  GPJ d          60.410   9.039  31.633  0.00  0.00     0.199 C 
ATOM     15  O4  GPJ d          61.120  10.097  31.540  0.00  0.00    -0.647 OA
ATOM     16  O5  GPJ d          60.513   8.222  32.535  0.00  0.00    -0.647 OA
ENDBRANCH  11  14
ENDBRANCH   1  11
TORSDOF 4
ENDMDL
MODEL 3
REMARK VINA RESULT:      -4.2      0.824      1.534
REMARK  4 active torsions:
REMARK  status: ('A' for Active; 'I' for Inactive)
REMARK    1  A    between atoms: C1_7  and  P1_1 
REMARK    2  A    between atoms: N1_10  and  C1_7 
REMARK    3  A    between atoms: C2_8  and  C3_9 
REMARK    4  A    between atoms: C2_8  and  N1_10 
ROOT
ATOM      1  N1  GPJ d          59.446   7.863  29.356  0.00  0.00    -0.053 N 
ATOM      2  H5  GPJ d          60.039   7.107  29.050  0.00  0.00     0.278 HD
ATOM      3  H6  GPJ d          58.523   7.745  28.969  0.00  0.00     0.278 HD
ENDROOT
BRANCH   1   4
ATOM      4  C1  GPJ d          59.991   9.088  28.780  0.00  0.00     0.183 C 
ATOM      5  H1  GPJ d          59.203   9.855  28.756  0.00  0.00     0.097 H 
ATOM      6  H2  GPJ d          60.825   9.438  29.405  0.00  0.00     0.097 H 
BRANCH   4   7
ATOM      7  P1  GPJ d          60.567   8.824  27.173  0.00  0.00     0.285 P 
ATOM      8  O1  GPJ d          61.461   7.630  27.181  0.00  0.00    -0.638 OA
ATOM      9  O2  GPJ d          61.265  10.097  26.852  0.00  0.00    -0.638 OA
ATOM     10  O3  GPJ d          59.383   8.606  26.286  0.00  0.00    -0.638 OA
ENDBRANCH   4   7
ENDBRANCH   1   4
BRANCH   1  11
ATOM     11  C2  GPJ d          59.313   7.733  30.818  0.00  0.00     0.161 C 
ATOM     12  H3  GPJ d          58.274   7.948  31.105  0.00  0.00     0.092 H 
ATOM     13  H4  GPJ d          59.570   6.706  31.112  0.00  0.00     0.092 H 
BRANCH  11  14
ATOM     14  C3  GPJ d          60.234   8.699  31.533  0.00  0.00     0.199 C 
ATOM     15  O4  GPJ d          60.691   8.386  32.686  0.00  0.00    -0.647 OA
ATOM     16  O5  GPJ d          60.500   9.738  30.950  0.00  0.00    -0.647 OA
ENDBRANCH  11  14
ENDBRANCH   1  11
TORSDOF 4
ENDMDL
