MODEL 1
REMARK VINA RESULT:      -9.5      0.000      0.000
REMARK  6 active torsions:
REMARK  status: ('A' for Active; 'I' for Inactive)
REMARK    1  A    between atoms: C1_1  and  N1_2 
REMARK    2  A    between atoms: C14_5  and  C8_8 
REMARK    3  A    between atoms: C13_6  and  O3_28 
REMARK    4  A    between atoms: C2_11  and  C21_21 
REMARK    5  A    between atoms: C5_16  and  O5_17 
REMARK    6  A    between atoms: C7_19  and  O7_20 
ROOT
ATOM      1  C8  CPB d          39.425  37.479  30.844  0.00  0.00     0.017 A 
ATOM      2  C9  CPB d          38.631  36.362  30.534  0.00  0.00     0.102 A 
ATOM      3  O1  CPB d          38.816  35.750  29.317  0.00  0.00    -0.308 OA
ATOM      4  C2  CPB d          38.086  34.632  29.005  0.00  0.00     0.091 A 
ATOM      5  C3  CPB d          37.139  34.136  29.899  0.00  0.00    -0.000 A 
ATOM      6  C4  CPB d          36.918  34.767  31.119  0.00  0.00     0.190 A 
ATOM      7  O4  CPB d          36.074  34.316  31.897  0.00  0.00    -0.287 OA
ATOM      8  C10 CPB d          37.676  35.893  31.448  0.00  0.00     0.082 A 
ATOM      9  C5  CPB d          37.533  36.524  32.689  0.00  0.00     0.085 A 
ATOM     10  C6  CPB d          38.313  37.628  32.997  0.00  0.00    -0.017 A 
ATOM     11  C7  CPB d          39.249  38.112  32.085  0.00  0.00     0.077 A 
ATOM     12  H13 CPB d          36.567  33.247  29.640  0.00  0.00     0.094 H 
ATOM     13  H15 CPB d          38.193  38.120  33.955  0.00  0.00     0.092 H 
ENDROOT
BRANCH   1  14
ATOM     14  C14 CPB d          40.450  37.953  29.769  0.00  0.00     0.005 C 
ATOM     15  C15 CPB d          40.306  39.453  29.465  0.00  0.00    -0.033 C 
ATOM     16  C16 CPB d          41.310  39.871  28.376  0.00  0.00     0.084 C 
ATOM     17  H7  CPB d          39.284  39.656  29.115  0.00  0.00     0.036 H 
ATOM     18  H8  CPB d          40.502  40.029  30.381  0.00  0.00     0.036 H 
ATOM     19  N1  CPB d          42.690  39.497  28.767  0.00  0.00    -0.072 N 
ATOM     20  H5  CPB d          41.052  39.367  27.434  0.00  0.00     0.076 H 
ATOM     21  H6  CPB d          41.258  40.961  28.235  0.00  0.00     0.076 H 
ATOM     22  C12 CPB d          42.829  38.032  28.935  0.00  0.00     0.107 C 
ATOM     23  H4  CPB d          42.920  39.951  29.638  0.00  0.00     0.279 HD
ATOM     24  C13 CPB d          41.917  37.568  30.076  0.00  0.00     0.066 C 
ATOM     25  H11 CPB d          43.874  37.787  29.177  0.00  0.00     0.080 H 
ATOM     26  H12 CPB d          42.539  37.525  28.003  0.00  0.00     0.080 H 
ATOM     27  H10 CPB d          41.988  36.476  30.185  0.00  0.00     0.086 H 
ATOM     28  H9  CPB d          40.184  37.420  28.843  0.00  0.00     0.051 H 
BRANCH  19  29
ATOM     29  C1  CPB d          43.617  39.948  27.716  0.00  0.00     0.066 C 
ATOM     30  H1  CPB d          43.521  41.036  27.584  0.00  0.00     0.068 H 
ATOM     31  H2  CPB d          43.374  39.440  26.770  0.00  0.00     0.068 H 
ATOM     32  H3  CPB d          44.649  39.705  28.008  0.00  0.00     0.068 H 
ENDBRANCH  19  29
BRANCH  24  33
ATOM     33  O3  CPB d          42.361  38.196  31.277  0.00  0.00    -0.393 OA
ATOM     34  H21 CPB d          41.808  37.922  31.999  0.00  0.00     0.210 HD
ENDBRANCH  24  33
ENDBRANCH   1  14
BRANCH  11  35
ATOM     35  O7  CPB d          39.976  39.197  32.459  0.00  0.00    -0.360 OA
ATOM     36  H16 CPB d          40.576  39.432  31.760  0.00  0.00     0.217 HD
ENDBRANCH  11  35
BRANCH   4  37
ATOM     37  C21 CPB d          38.310  33.964  27.792  0.00  0.00     0.020 A 
ATOM     38  C22 CPB d          38.800  34.607  26.641  0.00  0.00     0.047 A 
ATOM     39 CL1  CPB d          39.144  36.301  26.614  0.00  0.00    -0.083 Cl
ATOM     40  C23 CPB d          39.018  33.887  25.466  0.00  0.00    -0.061 A 
ATOM     41  C24 CPB d          38.754  32.519  25.432  0.00  0.00    -0.081 A 
ATOM     42  H17 CPB d          39.391  34.391  24.581  0.00  0.00     0.086 H 
ATOM     43  C25 CPB d          38.277  31.872  26.571  0.00  0.00    -0.082 A 
ATOM     44  H18 CPB d          38.921  31.959  24.519  0.00  0.00     0.083 H 
ATOM     45  C26 CPB d          38.060  32.584  27.743  0.00  0.00    -0.069 A 
ATOM     46  H19 CPB d          38.075  30.807  26.542  0.00  0.00     0.083 H 
ATOM     47  H20 CPB d          37.695  32.071  28.626  0.00  0.00     0.085 H 
ENDBRANCH   4  37
BRANCH   9  48
ATOM     48  O5  CPB d          36.631  36.087  33.613  0.00  0.00    -0.360 OA
ATOM     49  H14 CPB d          36.831  35.189  33.849  0.00  0.00     0.217 HD
ENDBRANCH   9  48
TORSDOF 6
ENDMDL
