MODEL 1
REMARK VINA RESULT:      -9.7      0.000      0.000
REMARK  6 active torsions:
REMARK  status: ('A' for Active; 'I' for Inactive)
REMARK    1  A    between atoms: C1_1  and  N1_2 
REMARK    2  A    between atoms: C14_5  and  C8_8 
REMARK    3  A    between atoms: C13_6  and  O3_28 
REMARK    4  A    between atoms: C2_11  and  C21_21 
REMARK    5  A    between atoms: C5_16  and  O5_17 
REMARK    6  A    between atoms: C7_19  and  O7_20 
ROOT
ATOM      1  C8  CPB d          38.967  37.270  30.748  0.00  0.00     0.017 A 
ATOM      2  C9  CPB d          38.288  36.095  30.381  0.00  0.00     0.102 A 
ATOM      3  O1  CPB d          38.512  35.578  29.127  0.00  0.00    -0.308 OA
ATOM      4  C2  CPB d          37.897  34.409  28.759  0.00  0.00     0.091 A 
ATOM      5  C3  CPB d          37.024  33.765  29.634  0.00  0.00    -0.000 A 
ATOM      6  C4  CPB d          36.761  34.298  30.893  0.00  0.00     0.190 A 
ATOM      7  O4  CPB d          35.984  33.715  31.652  0.00  0.00    -0.287 OA
ATOM      8  C10 CPB d          37.405  35.476  31.277  0.00  0.00     0.082 A 
ATOM      9  C5  CPB d          37.220  36.015  32.556  0.00  0.00     0.085 A 
ATOM     10  C6  CPB d          37.886  37.176  32.919  0.00  0.00    -0.017 A 
ATOM     11  C7  CPB d          38.749  37.808  32.025  0.00  0.00     0.077 A 
ATOM     12  H13 CPB d          36.543  32.837  29.330  0.00  0.00     0.094 H 
ATOM     13  H15 CPB d          37.734  37.596  33.907  0.00  0.00     0.092 H 
ENDROOT
BRANCH   1  14
ATOM     14  C14 CPB d          39.916  37.910  29.689  0.00  0.00     0.005 C 
ATOM     15  C15 CPB d          39.607  39.400  29.473  0.00  0.00    -0.033 C 
ATOM     16  C16 CPB d          40.542  39.984  28.398  0.00  0.00     0.084 C 
ATOM     17  H7  CPB d          38.563  39.511  29.147  0.00  0.00     0.036 H 
ATOM     18  H8  CPB d          39.757  39.942  30.418  0.00  0.00     0.036 H 
ATOM     19  N1  CPB d          41.960  39.740  28.751  0.00  0.00    -0.072 N 
ATOM     20  H5  CPB d          40.322  39.508  27.431  0.00  0.00     0.076 H 
ATOM     21  H6  CPB d          40.371  41.068  28.320  0.00  0.00     0.076 H 
ATOM     22  C12 CPB d          42.258  38.291  28.834  0.00  0.00     0.107 C 
ATOM     23  H4  CPB d          42.155  40.167  29.644  0.00  0.00     0.279 HD
ATOM     24  C13 CPB d          41.422  37.669  29.956  0.00  0.00     0.066 C 
ATOM     25  H11 CPB d          43.327  38.147  29.048  0.00  0.00     0.080 H 
ATOM     26  H12 CPB d          42.008  37.809  27.877  0.00  0.00     0.080 H 
ATOM     27  H10 CPB d          41.610  36.586  30.002  0.00  0.00     0.086 H 
ATOM     28  H9  CPB d          39.692  37.404  28.738  0.00  0.00     0.051 H 
BRANCH  19  29
ATOM     29  C1  CPB d          42.815  40.346  27.716  0.00  0.00     0.066 C 
ATOM     30  H1  CPB d          43.550  39.605  27.368  0.00  0.00     0.068 H 
ATOM     31  H2  CPB d          43.341  41.215  28.139  0.00  0.00     0.068 H 
ATOM     32  H3  CPB d          42.193  40.670  26.870  0.00  0.00     0.068 H 
ENDBRANCH  19  29
BRANCH  24  33
ATOM     33  O3  CPB d          41.817  38.273  31.186  0.00  0.00    -0.393 OA
ATOM     34  H21 CPB d          42.585  38.812  31.041  0.00  0.00     0.210 HD
ENDBRANCH  24  33
ENDBRANCH   1  14
BRANCH  11  35
ATOM     35  O7  CPB d          39.367  38.939  32.454  0.00  0.00    -0.360 OA
ATOM     36  H16 CPB d          40.172  38.709  32.903  0.00  0.00     0.217 HD
ENDBRANCH  11  35
BRANCH   4  37
ATOM     37  C21 CPB d          38.166  33.839  27.505  0.00  0.00     0.020 A 
ATOM     38  C22 CPB d          38.729  34.563  26.439  0.00  0.00     0.047 A 
ATOM     39 CL1  CPB d          39.114  36.243  26.574  0.00  0.00    -0.083 Cl
ATOM     40  C23 CPB d          38.989  33.940  25.218  0.00  0.00    -0.061 A 
ATOM     41  C24 CPB d          38.695  32.587  25.054  0.00  0.00    -0.081 A 
ATOM     42  H17 CPB d          39.418  34.506  24.399  0.00  0.00     0.086 H 
ATOM     43  C25 CPB d          38.146  31.859  26.110  0.00  0.00    -0.082 A 
ATOM     44  H18 CPB d          38.894  32.101  24.107  0.00  0.00     0.083 H 
ATOM     45  C26 CPB d          37.887  32.476  27.326  0.00  0.00    -0.069 A 
ATOM     46  H19 CPB d          37.920  30.807  25.979  0.00  0.00     0.083 H 
ATOM     47  H20 CPB d          37.466  31.901  28.143  0.00  0.00     0.085 H 
ENDBRANCH   4  37
BRANCH   9  48
ATOM     48  O5  CPB d          36.386  35.433  33.464  0.00  0.00    -0.360 OA
ATOM     49  H14 CPB d          36.664  34.537  33.617  0.00  0.00     0.217 HD
ENDBRANCH   9  48
TORSDOF 6
ENDMDL
MODEL 2
REMARK VINA RESULT:      -9.4      2.329      5.308
REMARK  6 active torsions:
REMARK  status: ('A' for Active; 'I' for Inactive)
REMARK    1  A    between atoms: C1_1  and  N1_2 
REMARK    2  A    between atoms: C14_5  and  C8_8 
REMARK    3  A    between atoms: C13_6  and  O3_28 
REMARK    4  A    between atoms: C2_11  and  C21_21 
REMARK    5  A    between atoms: C5_16  and  O5_17 
REMARK    6  A    between atoms: C7_19  and  O7_20 
ROOT
ATOM      1  C8  CPB d          39.577  36.766  27.122  0.00  0.00     0.017 A 
ATOM      2  C9  CPB d          38.890  35.856  27.943  0.00  0.00     0.102 A 
ATOM      3  O1  CPB d          38.650  36.210  29.249  0.00  0.00    -0.308 OA
ATOM      4  C2  CPB d          37.943  35.361  30.061  0.00  0.00     0.091 A 
ATOM      5  C3  CPB d          37.498  34.131  29.577  0.00  0.00    -0.000 A 
ATOM      6  C4  CPB d          37.764  33.746  28.267  0.00  0.00     0.190 A 
ATOM      7  O4  CPB d          37.364  32.654  27.858  0.00  0.00    -0.287 OA
ATOM      8  C10 CPB d          38.464  34.621  27.433  0.00  0.00     0.082 A 
ATOM      9  C5  CPB d          38.701  34.304  26.090  0.00  0.00     0.085 A 
ATOM     10  C6  CPB d          39.383  35.199  25.279  0.00  0.00    -0.017 A 
ATOM     11  C7  CPB d          39.826  36.419  25.785  0.00  0.00     0.077 A 
ATOM     12  H13 CPB d          36.936  33.466  30.231  0.00  0.00     0.094 H 
ATOM     13  H15 CPB d          39.573  34.946  24.242  0.00  0.00     0.092 H 
ENDROOT
BRANCH   1  14
ATOM     14  C14 CPB d          40.035  38.110  27.767  0.00  0.00     0.005 C 
ATOM     15  C15 CPB d          41.551  38.321  27.630  0.00  0.00    -0.033 C 
ATOM     16  C16 CPB d          41.966  39.640  28.308  0.00  0.00     0.084 C 
ATOM     17  H7  CPB d          42.079  37.484  28.109  0.00  0.00     0.036 H 
ATOM     18  H8  CPB d          41.817  38.362  26.563  0.00  0.00     0.036 H 
ATOM     19  N1  CPB d          41.180  40.774  27.768  0.00  0.00    -0.072 N 
ATOM     20  H5  CPB d          41.789  39.560  29.390  0.00  0.00     0.076 H 
ATOM     21  H6  CPB d          43.035  39.821  28.124  0.00  0.00     0.076 H 
ATOM     22  C12 CPB d          39.731  40.601  28.021  0.00  0.00     0.107 C 
ATOM     23  H4  CPB d          41.334  40.837  26.773  0.00  0.00     0.279 HD
ATOM     24  C13 CPB d          39.238  39.348  27.289  0.00  0.00     0.066 C 
ATOM     25  H11 CPB d          39.185  41.482  27.652  0.00  0.00     0.080 H 
ATOM     26  H12 CPB d          39.557  40.488  29.102  0.00  0.00     0.080 H 
ATOM     27  H10 CPB d          38.170  39.192  27.501  0.00  0.00     0.086 H 
ATOM     28  H9  CPB d          39.829  38.014  28.843  0.00  0.00     0.051 H 
BRANCH  19  29
ATOM     29  C1  CPB d          41.634  42.015  28.417  0.00  0.00     0.066 C 
ATOM     30  H1  CPB d          40.996  42.229  29.287  0.00  0.00     0.068 H 
ATOM     31  H2  CPB d          41.570  42.848  27.701  0.00  0.00     0.068 H 
ATOM     32  H3  CPB d          42.676  41.895  28.749  0.00  0.00     0.068 H 
ENDBRANCH  19  29
BRANCH  24  33
ATOM     33  O3  CPB d          39.421  39.556  25.890  0.00  0.00    -0.393 OA
ATOM     34  H21 CPB d          39.715  38.747  25.487  0.00  0.00     0.210 HD
ENDBRANCH  24  33
ENDBRANCH   1  14
BRANCH  11  35
ATOM     35  O7  CPB d          40.485  37.243  24.929  0.00  0.00    -0.360 OA
ATOM     36  H16 CPB d          40.243  37.028  24.035  0.00  0.00     0.217 HD
ENDBRANCH  11  35
BRANCH   4  37
ATOM     37  C21 CPB d          37.640  35.738  31.377  0.00  0.00     0.020 A 
ATOM     38  C22 CPB d          38.235  36.841  32.015  0.00  0.00     0.047 A 
ATOM     39 CL1  CPB d          39.426  37.819  31.232  0.00  0.00    -0.083 Cl
ATOM     40  C23 CPB d          37.883  37.179  33.322  0.00  0.00    -0.061 A 
ATOM     41  C24 CPB d          36.930  36.421  34.001  0.00  0.00    -0.081 A 
ATOM     42  H17 CPB d          38.350  38.027  33.809  0.00  0.00     0.086 H 
ATOM     43  C25 CPB d          36.328  35.331  33.373  0.00  0.00    -0.082 A 
ATOM     44  H18 CPB d          36.657  36.680  35.017  0.00  0.00     0.083 H 
ATOM     45  C26 CPB d          36.675  34.993  32.071  0.00  0.00    -0.069 A 
ATOM     46  H19 CPB d          35.586  34.745  33.903  0.00  0.00     0.083 H 
ATOM     47  H20 CPB d          36.197  34.148  31.589  0.00  0.00     0.085 H 
ENDBRANCH   4  37
BRANCH   9  48
ATOM     48  O5  CPB d          38.287  33.122  25.551  0.00  0.00    -0.360 OA
ATOM     49  H14 CPB d          37.403  33.221  25.217  0.00  0.00     0.217 HD
ENDBRANCH   9  48
TORSDOF 6
ENDMDL
MODEL 3
REMARK VINA RESULT:      -8.9      1.358      1.740
REMARK  6 active torsions:
REMARK  status: ('A' for Active; 'I' for Inactive)
REMARK    1  A    between atoms: C1_1  and  N1_2 
REMARK    2  A    between atoms: C14_5  and  C8_8 
REMARK    3  A    between atoms: C13_6  and  O3_28 
REMARK    4  A    between atoms: C2_11  and  C21_21 
REMARK    5  A    between atoms: C5_16  and  O5_17 
REMARK    6  A    between atoms: C7_19  and  O7_20 
ROOT
ATOM      1  C8  CPB d          39.946  37.502  30.561  0.00  0.00     0.017 A 
ATOM      2  C9  CPB d          39.030  36.462  30.333  0.00  0.00     0.102 A 
ATOM      3  O1  CPB d          39.120  35.761  29.154  0.00  0.00    -0.308 OA
ATOM      4  C2  CPB d          38.267  34.713  28.925  0.00  0.00     0.091 A 
ATOM      5  C3  CPB d          37.292  34.378  29.863  0.00  0.00    -0.000 A 
ATOM      6  C4  CPB d          37.168  35.102  31.045  0.00  0.00     0.190 A 
ATOM      7  O4  CPB d          36.298  34.792  31.862  0.00  0.00    -0.287 OA
ATOM      8  C10 CPB d          38.051  36.156  31.290  0.00  0.00     0.082 A 
ATOM      9  C5  CPB d          38.005  36.872  32.492  0.00  0.00     0.085 A 
ATOM     10  C6  CPB d          38.906  37.901  32.718  0.00  0.00    -0.017 A 
ATOM     11  C7  CPB d          39.868  38.224  31.762  0.00  0.00     0.077 A 
ATOM     12  H13 CPB d          36.621  33.543  29.669  0.00  0.00     0.094 H 
ATOM     13  H15 CPB d          38.862  38.460  33.646  0.00  0.00     0.092 H 
ENDROOT
BRANCH   1  14
ATOM     14  C14 CPB d          40.992  37.795  29.442  0.00  0.00     0.005 C 
ATOM     15  C15 CPB d          41.396  36.517  28.690  0.00  0.00    -0.033 C 
ATOM     16  C16 CPB d          42.452  36.844  27.619  0.00  0.00     0.084 C 
ATOM     17  H7  CPB d          41.815  35.793  29.405  0.00  0.00     0.036 H 
ATOM     18  H8  CPB d          40.509  36.084  28.206  0.00  0.00     0.036 H 
ATOM     19  N1  CPB d          41.963  37.909  26.712  0.00  0.00    -0.072 N 
ATOM     20  H5  CPB d          43.374  37.185  28.112  0.00  0.00     0.076 H 
ATOM     21  H6  CPB d          42.664  35.938  27.031  0.00  0.00     0.076 H 
ATOM     22  C12 CPB d          41.695  39.168  27.445  0.00  0.00     0.107 C 
ATOM     23  H4  CPB d          41.111  37.598  26.270  0.00  0.00     0.279 HD
ATOM     24  C13 CPB d          40.580  38.926  28.468  0.00  0.00     0.066 C 
ATOM     25  H11 CPB d          41.381  39.947  26.736  0.00  0.00     0.080 H 
ATOM     26  H12 CPB d          42.608  39.491  27.966  0.00  0.00     0.080 H 
ATOM     27  H10 CPB d          40.399  39.847  29.042  0.00  0.00     0.086 H 
ATOM     28  H9  CPB d          41.895  38.153  29.958  0.00  0.00     0.051 H 
BRANCH  19  29
ATOM     29  C1  CPB d          42.987  38.162  25.685  0.00  0.00     0.066 C 
ATOM     30  H1  CPB d          43.982  38.173  26.154  0.00  0.00     0.068 H 
ATOM     31  H2  CPB d          42.795  39.135  25.208  0.00  0.00     0.068 H 
ATOM     32  H3  CPB d          42.950  37.367  24.925  0.00  0.00     0.068 H 
ENDBRANCH  19  29
BRANCH  24  33
ATOM     33  O3  CPB d          39.398  38.570  27.754  0.00  0.00    -0.393 OA
ATOM     34  H21 CPB d          39.636  38.220  26.903  0.00  0.00     0.210 HD
ENDBRANCH  24  33
ENDBRANCH   1  14
BRANCH  11  35
ATOM     35  O7  CPB d          40.717  39.243  32.057  0.00  0.00    -0.360 OA
ATOM     36  H16 CPB d          41.492  38.896  32.483  0.00  0.00     0.217 HD
ENDBRANCH  11  35
BRANCH   4  37
ATOM     37  C21 CPB d          38.389  33.952  27.752  0.00  0.00     0.020 A 
ATOM     38  C22 CPB d          38.729  34.512  26.507  0.00  0.00     0.047 A 
ATOM     39 CL1  CPB d          38.999  36.207  26.308  0.00  0.00    -0.083 Cl
ATOM     40  C23 CPB d          38.852  33.703  25.377  0.00  0.00    -0.061 A 
ATOM     41  C24 CPB d          38.642  32.330  25.481  0.00  0.00    -0.081 A 
ATOM     42  H17 CPB d          39.109  34.143  24.419  0.00  0.00     0.086 H 
ATOM     43  C25 CPB d          38.314  31.765  26.714  0.00  0.00    -0.082 A 
ATOM     44  H18 CPB d          38.735  31.700  24.604  0.00  0.00     0.083 H 
ATOM     45  C26 CPB d          38.192  32.566  27.841  0.00  0.00    -0.069 A 
ATOM     46  H19 CPB d          38.153  30.696  26.791  0.00  0.00     0.083 H 
ATOM     47  H20 CPB d          37.943  32.118  28.796  0.00  0.00     0.085 H 
ENDBRANCH   4  37
BRANCH   9  48
ATOM     48  O5  CPB d          37.082  36.592  33.456  0.00  0.00    -0.360 OA
ATOM     49  H14 CPB d          36.224  36.513  33.057  0.00  0.00     0.217 HD
ENDBRANCH   9  48
TORSDOF 6
ENDMDL
MODEL 4
REMARK VINA RESULT:      -8.8      2.456      5.719
REMARK  6 active torsions:
REMARK  status: ('A' for Active; 'I' for Inactive)
REMARK    1  A    between atoms: C1_1  and  N1_2 
REMARK    2  A    between atoms: C14_5  and  C8_8 
REMARK    3  A    between atoms: C13_6  and  O3_28 
REMARK    4  A    between atoms: C2_11  and  C21_21 
REMARK    5  A    between atoms: C5_16  and  O5_17 
REMARK    6  A    between atoms: C7_19  and  O7_20 
ROOT
ATOM      1  C8  CPB d          38.995  35.794  28.595  0.00  0.00     0.017 A 
ATOM      2  C9  CPB d          38.575  36.101  29.900  0.00  0.00     0.102 A 
ATOM      3  O1  CPB d          39.090  37.224  30.503  0.00  0.00    -0.308 OA
ATOM      4  C2  CPB d          38.666  37.572  31.759  0.00  0.00     0.091 A 
ATOM      5  C3  CPB d          37.744  36.776  32.438  0.00  0.00    -0.000 A 
ATOM      6  C4  CPB d          37.242  35.618  31.852  0.00  0.00     0.190 A 
ATOM      7  O4  CPB d          36.429  34.926  32.469  0.00  0.00    -0.287 OA
ATOM      8  C10 CPB d          37.656  35.275  30.563  0.00  0.00     0.082 A 
ATOM      9  C5  CPB d          37.131  34.154  29.911  0.00  0.00     0.085 A 
ATOM     10  C6  CPB d          37.546  33.847  28.623  0.00  0.00    -0.017 A 
ATOM     11  C7  CPB d          38.475  34.653  27.966  0.00  0.00     0.077 A 
ATOM     12  H13 CPB d          37.414  37.064  33.434  0.00  0.00     0.094 H 
ATOM     13  H15 CPB d          37.144  32.973  28.124  0.00  0.00     0.092 H 
ENDROOT
BRANCH   1  14
ATOM     14  C14 CPB d          40.034  36.750  27.932  0.00  0.00     0.005 C 
ATOM     15  C15 CPB d          41.306  36.001  27.506  0.00  0.00    -0.033 C 
ATOM     16  C16 CPB d          42.318  36.984  26.889  0.00  0.00     0.084 C 
ATOM     17  H7  CPB d          41.757  35.521  28.386  0.00  0.00     0.036 H 
ATOM     18  H8  CPB d          41.045  35.234  26.762  0.00  0.00     0.036 H 
ATOM     19  N1  CPB d          41.699  37.738  25.773  0.00  0.00    -0.072 N 
ATOM     20  H5  CPB d          42.652  37.691  27.662  0.00  0.00     0.076 H 
ATOM     21  H6  CPB d          43.183  36.421  26.508  0.00  0.00     0.076 H 
ATOM     22  C12 CPB d          40.547  38.546  26.236  0.00  0.00     0.107 C 
ATOM     23  H4  CPB d          41.382  37.087  25.072  0.00  0.00     0.279 HD
ATOM     24  C13 CPB d          39.462  37.610  26.779  0.00  0.00     0.066 C 
ATOM     25  H11 CPB d          40.143  39.128  25.395  0.00  0.00     0.080 H 
ATOM     26  H12 CPB d          40.874  39.231  27.033  0.00  0.00     0.080 H 
ATOM     27  H10 CPB d          38.617  38.204  27.158  0.00  0.00     0.086 H 
ATOM     28  H9  CPB d          40.336  37.458  28.717  0.00  0.00     0.051 H 
BRANCH  19  29
ATOM     29  C1  CPB d          42.710  38.636  25.192  0.00  0.00     0.066 C 
ATOM     30  H1  CPB d          42.226  39.566  24.859  0.00  0.00     0.068 H 
ATOM     31  H2  CPB d          43.188  38.143  24.332  0.00  0.00     0.068 H 
ATOM     32  H3  CPB d          43.472  38.871  25.950  0.00  0.00     0.068 H 
ENDBRANCH  19  29
BRANCH  24  33
ATOM     33  O3  CPB d          39.018  36.782  25.705  0.00  0.00    -0.393 OA
ATOM     34  H21 CPB d          38.995  35.877  25.994  0.00  0.00     0.210 HD
ENDBRANCH  24  33
ENDBRANCH   1  14
BRANCH  11  35
ATOM     35  O7  CPB d          38.830  34.288  26.706  0.00  0.00    -0.360 OA
ATOM     36  H16 CPB d          38.365  33.496  26.464  0.00  0.00     0.217 HD
ENDBRANCH  11  35
BRANCH   4  37
ATOM     37  C21 CPB d          39.139  38.749  32.359  0.00  0.00     0.020 A 
ATOM     38  C22 CPB d          39.022  40.016  31.759  0.00  0.00     0.047 A 
ATOM     39 CL1  CPB d          38.306  40.229  30.201  0.00  0.00    -0.083 Cl
ATOM     40  C23 CPB d          39.498  41.154  32.411  0.00  0.00    -0.061 A 
ATOM     41  C24 CPB d          40.087  41.038  33.668  0.00  0.00    -0.081 A 
ATOM     42  H17 CPB d          39.409  42.127  31.940  0.00  0.00     0.086 H 
ATOM     43  C25 CPB d          40.198  39.787  34.274  0.00  0.00    -0.082 A 
ATOM     44  H18 CPB d          40.459  41.921  34.175  0.00  0.00     0.083 H 
ATOM     45  C26 CPB d          39.725  38.652  33.630  0.00  0.00    -0.069 A 
ATOM     46  H19 CPB d          40.656  39.701  35.253  0.00  0.00     0.083 H 
ATOM     47  H20 CPB d          39.810  37.684  34.112  0.00  0.00     0.085 H 
ENDBRANCH   4  37
BRANCH   9  48
ATOM     48  O5  CPB d          36.221  33.337  30.513  0.00  0.00    -0.360 OA
ATOM     49  H14 CPB d          35.566  33.073  29.877  0.00  0.00     0.217 HD
ENDBRANCH   9  48
TORSDOF 6
ENDMDL
MODEL 5
REMARK VINA RESULT:      -8.3      2.066      5.460
REMARK  6 active torsions:
REMARK  status: ('A' for Active; 'I' for Inactive)
REMARK    1  A    between atoms: C1_1  and  N1_2 
REMARK    2  A    between atoms: C14_5  and  C8_8 
REMARK    3  A    between atoms: C13_6  and  O3_28 
REMARK    4  A    between atoms: C2_11  and  C21_21 
REMARK    5  A    between atoms: C5_16  and  O5_17 
REMARK    6  A    between atoms: C7_19  and  O7_20 
ROOT
ATOM      1  C8  CPB d          37.327  34.664  29.881  0.00  0.00     0.017 A 
ATOM      2  C9  CPB d          38.087  35.803  30.194  0.00  0.00     0.102 A 
ATOM      3  O1  CPB d          38.909  36.325  29.223  0.00  0.00    -0.308 OA
ATOM      4  C2  CPB d          39.629  37.461  29.487  0.00  0.00     0.091 A 
ATOM      5  C3  CPB d          39.557  38.067  30.740  0.00  0.00    -0.000 A 
ATOM      6  C4  CPB d          38.756  37.529  31.742  0.00  0.00     0.190 A 
ATOM      7  O4  CPB d          38.706  38.077  32.845  0.00  0.00    -0.287 OA
ATOM      8  C10 CPB d          38.004  36.384  31.468  0.00  0.00     0.082 A 
ATOM      9  C5  CPB d          37.138  35.843  32.424  0.00  0.00     0.085 A 
ATOM     10  C6  CPB d          36.388  34.716  32.118  0.00  0.00    -0.017 A 
ATOM     11  C7  CPB d          36.482  34.122  30.861  0.00  0.00     0.077 A 
ATOM     12  H13 CPB d          40.132  38.970  30.936  0.00  0.00     0.094 H 
ATOM     13  H15 CPB d          35.725  34.294  32.864  0.00  0.00     0.092 H 
ENDROOT
BRANCH   1  14
ATOM     14  C14 CPB d          37.489  34.064  28.450  0.00  0.00     0.005 C 
ATOM     15  C15 CPB d          38.504  34.857  27.611  0.00  0.00    -0.033 C 
ATOM     16  C16 CPB d          38.609  34.254  26.198  0.00  0.00     0.084 C 
ATOM     17  H7  CPB d          38.175  35.903  27.537  0.00  0.00     0.036 H 
ATOM     18  H8  CPB d          39.489  34.815  28.098  0.00  0.00     0.036 H 
ATOM     19  N1  CPB d          38.931  32.810  26.270  0.00  0.00    -0.072 N 
ATOM     20  H5  CPB d          37.649  34.385  25.678  0.00  0.00     0.076 H 
ATOM     21  H6  CPB d          39.402  34.774  25.641  0.00  0.00     0.076 H 
ATOM     22  C12 CPB d          37.876  32.051  26.980  0.00  0.00     0.107 C 
ATOM     23  H4  CPB d          39.806  32.691  26.759  0.00  0.00     0.279 HD
ATOM     24  C13 CPB d          37.789  32.545  28.428  0.00  0.00     0.066 C 
ATOM     25  H11 CPB d          38.123  30.979  26.972  0.00  0.00     0.080 H 
ATOM     26  H12 CPB d          36.909  32.208  26.479  0.00  0.00     0.080 H 
ATOM     27  H10 CPB d          36.983  32.012  28.953  0.00  0.00     0.086 H 
ATOM     28  H9  CPB d          36.513  34.188  27.958  0.00  0.00     0.051 H 
BRANCH  19  29
ATOM     29  C1  CPB d          39.057  32.286  24.900  0.00  0.00     0.066 C 
ATOM     30  H1  CPB d          38.292  31.514  24.730  0.00  0.00     0.068 H 
ATOM     31  H2  CPB d          40.057  31.846  24.766  0.00  0.00     0.068 H 
ATOM     32  H3  CPB d          38.917  33.105  24.179  0.00  0.00     0.068 H 
ENDBRANCH  19  29
BRANCH  24  33
ATOM     33  O3  CPB d          39.035  32.269  29.063  0.00  0.00    -0.393 OA
ATOM     34  H21 CPB d          38.884  32.052  29.976  0.00  0.00     0.210 HD
ENDBRANCH  24  33
ENDBRANCH   1  14
BRANCH  11  35
ATOM     35  O7  CPB d          35.715  33.022  30.637  0.00  0.00    -0.360 OA
ATOM     36  H16 CPB d          34.981  33.257  30.081  0.00  0.00     0.217 HD
ENDBRANCH  11  35
BRANCH   4  37
ATOM     37  C21 CPB d          40.423  38.037  28.484  0.00  0.00     0.020 A 
ATOM     38  C22 CPB d          41.663  37.505  28.087  0.00  0.00     0.047 A 
ATOM     39 CL1  CPB d          42.335  36.096  28.831  0.00  0.00    -0.083 Cl
ATOM     40  C23 CPB d          42.403  38.112  27.072  0.00  0.00    -0.061 A 
ATOM     41  C24 CPB d          41.909  39.251  26.441  0.00  0.00    -0.081 A 
ATOM     42  H17 CPB d          43.361  37.698  26.776  0.00  0.00     0.086 H 
ATOM     43  C25 CPB d          40.676  39.781  26.822  0.00  0.00    -0.082 A 
ATOM     44  H18 CPB d          42.483  39.726  25.654  0.00  0.00     0.083 H 
ATOM     45  C26 CPB d          39.936  39.179  27.831  0.00  0.00    -0.069 A 
ATOM     46  H19 CPB d          40.293  40.667  26.327  0.00  0.00     0.083 H 
ATOM     47  H20 CPB d          38.975  39.594  28.115  0.00  0.00     0.085 H 
ENDBRANCH   4  37
BRANCH   9  48
ATOM     48  O5  CPB d          37.013  36.389  33.667  0.00  0.00    -0.360 OA
ATOM     49  H14 CPB d          37.864  36.411  34.088  0.00  0.00     0.217 HD
ENDBRANCH   9  48
TORSDOF 6
ENDMDL
MODEL 6
REMARK VINA RESULT:      -8.3      1.497      2.055
REMARK  6 active torsions:
REMARK  status: ('A' for Active; 'I' for Inactive)
REMARK    1  A    between atoms: C1_1  and  N1_2 
REMARK    2  A    between atoms: C14_5  and  C8_8 
REMARK    3  A    between atoms: C13_6  and  O3_28 
REMARK    4  A    between atoms: C2_11  and  C21_21 
REMARK    5  A    between atoms: C5_16  and  O5_17 
REMARK    6  A    between atoms: C7_19  and  O7_20 
ROOT
ATOM      1  C8  CPB d          39.564  38.803  29.742  0.00  0.00     0.017 A 
ATOM      2  C9  CPB d          38.923  37.578  29.989  0.00  0.00     0.102 A 
ATOM      3  O1  CPB d          38.850  36.663  28.966  0.00  0.00    -0.308 OA
ATOM      4  C2  CPB d          38.270  35.441  29.191  0.00  0.00     0.091 A 
ATOM      5  C3  CPB d          37.726  35.138  30.438  0.00  0.00    -0.000 A 
ATOM      6  C4  CPB d          37.762  36.069  31.472  0.00  0.00     0.190 A 
ATOM      7  O4  CPB d          37.274  35.784  32.568  0.00  0.00    -0.287 OA
ATOM      8  C10 CPB d          38.374  37.305  31.250  0.00  0.00     0.082 A 
ATOM      9  C5  CPB d          38.489  38.248  32.278  0.00  0.00     0.085 A 
ATOM     10  C6  CPB d          39.118  39.460  32.036  0.00  0.00    -0.017 A 
ATOM     11  C7  CPB d          39.648  39.745  30.779  0.00  0.00     0.077 A 
ATOM     12  H13 CPB d          37.269  34.165  30.605  0.00  0.00     0.094 H 
ATOM     13  H15 CPB d          39.198  40.192  32.832  0.00  0.00     0.092 H 
ENDROOT
BRANCH   1  14
ATOM     14  C14 CPB d          40.131  39.040  28.309  0.00  0.00     0.005 C 
ATOM     15  C15 CPB d          39.601  40.345  27.695  0.00  0.00    -0.033 C 
ATOM     16  C16 CPB d          40.157  40.524  26.270  0.00  0.00     0.084 C 
ATOM     17  H7  CPB d          38.503  40.308  27.654  0.00  0.00     0.036 H 
ATOM     18  H8  CPB d          39.917  41.195  28.317  0.00  0.00     0.036 H 
ATOM     19  N1  CPB d          41.637  40.455  26.275  0.00  0.00    -0.072 N 
ATOM     20  H5  CPB d          39.760  39.727  25.625  0.00  0.00     0.076 H 
ATOM     21  H6  CPB d          39.843  41.503  25.879  0.00  0.00     0.076 H 
ATOM     22  C12 CPB d          42.119  39.141  26.760  0.00  0.00     0.107 C 
ATOM     23  H4  CPB d          41.998  41.179  26.878  0.00  0.00     0.279 HD
ATOM     24  C13 CPB d          41.674  38.946  28.213  0.00  0.00     0.066 C 
ATOM     25  H11 CPB d          43.217  39.108  26.704  0.00  0.00     0.080 H 
ATOM     26  H12 CPB d          41.696  38.341  26.134  0.00  0.00     0.080 H 
ATOM     27  H10 CPB d          41.997  37.957  28.569  0.00  0.00     0.086 H 
ATOM     28  H9  CPB d          39.738  38.221  27.689  0.00  0.00     0.051 H 
BRANCH  19  29
ATOM     29  C1  CPB d          42.125  40.667  24.902  0.00  0.00     0.066 C 
ATOM     30  H1  CPB d          41.659  39.931  24.230  0.00  0.00     0.068 H 
ATOM     31  H2  CPB d          43.218  40.545  24.878  0.00  0.00     0.068 H 
ATOM     32  H3  CPB d          41.862  41.683  24.572  0.00  0.00     0.068 H 
ENDBRANCH  19  29
BRANCH  24  33
ATOM     33  O3  CPB d          42.290  39.962  29.002  0.00  0.00    -0.393 OA
ATOM     34  H21 CPB d          41.706  40.212  29.707  0.00  0.00     0.210 HD
ENDBRANCH  24  33
ENDBRANCH   1  14
BRANCH  11  35
ATOM     35  O7  CPB d          40.251  40.953  30.620  0.00  0.00    -0.360 OA
ATOM     36  H16 CPB d          39.593  41.611  30.429  0.00  0.00     0.217 HD
ENDBRANCH  11  35
BRANCH   4  37
ATOM     37  C21 CPB d          38.244  34.478  28.172  0.00  0.00     0.020 A 
ATOM     38  C22 CPB d          38.732  34.720  26.875  0.00  0.00     0.047 A 
ATOM     39 CL1  CPB d          39.385  36.252  26.413  0.00  0.00    -0.083 Cl
ATOM     40  C23 CPB d          38.695  33.717  25.905  0.00  0.00    -0.061 A 
ATOM     41  C24 CPB d          38.176  32.464  26.224  0.00  0.00    -0.081 A 
ATOM     42  H17 CPB d          39.069  33.913  24.906  0.00  0.00     0.086 H 
ATOM     43  C25 CPB d          37.699  32.212  27.510  0.00  0.00    -0.082 A 
ATOM     44  H18 CPB d          38.144  31.684  25.472  0.00  0.00     0.083 H 
ATOM     45  C26 CPB d          37.735  33.207  28.478  0.00  0.00    -0.069 A 
ATOM     46  H19 CPB d          37.297  31.235  27.755  0.00  0.00     0.083 H 
ATOM     47  H20 CPB d          37.368  33.000  29.477  0.00  0.00     0.085 H 
ENDBRANCH   4  37
BRANCH   9  48
ATOM     48  O5  CPB d          37.987  38.013  33.524  0.00  0.00    -0.360 OA
ATOM     49  H14 CPB d          37.239  38.579  33.674  0.00  0.00     0.217 HD
ENDBRANCH   9  48
TORSDOF 6
ENDMDL
MODEL 7
REMARK VINA RESULT:      -8.2      2.185      5.409
REMARK  6 active torsions:
REMARK  status: ('A' for Active; 'I' for Inactive)
REMARK    1  A    between atoms: C1_1  and  N1_2 
REMARK    2  A    between atoms: C14_5  and  C8_8 
REMARK    3  A    between atoms: C13_6  and  O3_28 
REMARK    4  A    between atoms: C2_11  and  C21_21 
REMARK    5  A    between atoms: C5_16  and  O5_17 
REMARK    6  A    between atoms: C7_19  and  O7_20 
ROOT
ATOM      1  C8  CPB d          39.178  35.794  28.400  0.00  0.00     0.017 A 
ATOM      2  C9  CPB d          38.765  36.125  29.702  0.00  0.00     0.102 A 
ATOM      3  O1  CPB d          39.321  37.231  30.300  0.00  0.00    -0.308 OA
ATOM      4  C2  CPB d          38.903  37.603  31.552  0.00  0.00     0.091 A 
ATOM      5  C3  CPB d          37.947  36.848  32.230  0.00  0.00    -0.000 A 
ATOM      6  C4  CPB d          37.402  35.707  31.649  0.00  0.00     0.190 A 
ATOM      7  O4  CPB d          36.559  35.052  32.265  0.00  0.00    -0.287 OA
ATOM      8  C10 CPB d          37.810  35.341  30.364  0.00  0.00     0.082 A 
ATOM      9  C5  CPB d          37.245  34.237  29.715  0.00  0.00     0.085 A 
ATOM     10  C6  CPB d          37.653  33.906  28.432  0.00  0.00    -0.017 A 
ATOM     11  C7  CPB d          38.617  34.670  27.776  0.00  0.00     0.077 A 
ATOM     12  H13 CPB d          37.624  37.155  33.223  0.00  0.00     0.094 H 
ATOM     13  H15 CPB d          37.220  33.045  27.936  0.00  0.00     0.092 H 
ENDROOT
BRANCH   1  14
ATOM     14  C14 CPB d          40.258  36.703  27.738  0.00  0.00     0.005 C 
ATOM     15  C15 CPB d          39.961  38.195  27.959  0.00  0.00    -0.033 C 
ATOM     16  C16 CPB d          41.030  39.057  27.261  0.00  0.00     0.084 C 
ATOM     17  H7  CPB d          38.972  38.434  27.542  0.00  0.00     0.036 H 
ATOM     18  H8  CPB d          39.967  38.411  29.037  0.00  0.00     0.036 H 
ATOM     19  N1  CPB d          42.387  38.672  27.714  0.00  0.00    -0.072 N 
ATOM     20  H5  CPB d          40.956  38.913  26.174  0.00  0.00     0.076 H 
ATOM     21  H6  CPB d          40.855  40.115  27.504  0.00  0.00     0.076 H 
ATOM     22  C12 CPB d          42.692  37.261  27.380  0.00  0.00     0.107 C 
ATOM     23  H4  CPB d          42.448  38.793  28.713  0.00  0.00     0.279 HD
ATOM     24  C13 CPB d          41.714  36.345  28.123  0.00  0.00     0.066 C 
ATOM     25  H11 CPB d          43.722  37.025  27.685  0.00  0.00     0.080 H 
ATOM     26  H12 CPB d          42.587  37.109  26.295  0.00  0.00     0.080 H 
ATOM     27  H10 CPB d          41.911  35.297  27.853  0.00  0.00     0.086 H 
ATOM     28  H9  CPB d          40.179  36.526  26.655  0.00  0.00     0.051 H 
BRANCH  19  29
ATOM     29  C1  CPB d          43.371  39.544  27.050  0.00  0.00     0.066 C 
ATOM     30  H1  CPB d          44.315  38.995  26.916  0.00  0.00     0.068 H 
ATOM     31  H2  CPB d          43.549  40.434  27.672  0.00  0.00     0.068 H 
ATOM     32  H3  CPB d          42.984  39.853  26.069  0.00  0.00     0.068 H 
ENDBRANCH  19  29
BRANCH  24  33
ATOM     33  O3  CPB d          41.923  36.523  29.523  0.00  0.00    -0.393 OA
ATOM     34  H21 CPB d          42.847  36.428  29.719  0.00  0.00     0.210 HD
ENDBRANCH  24  33
ENDBRANCH   1  14
BRANCH  11  35
ATOM     35  O7  CPB d          38.965  34.284  26.520  0.00  0.00    -0.360 OA
ATOM     36  H16 CPB d          39.908  34.339  26.423  0.00  0.00     0.217 HD
ENDBRANCH  11  35
BRANCH   4  37
ATOM     37  C21 CPB d          39.419  38.764  32.148  0.00  0.00     0.020 A 
ATOM     38  C22 CPB d          39.141  40.058  31.673  0.00  0.00     0.047 A 
ATOM     39 CL1  CPB d          38.152  40.330  30.281  0.00  0.00    -0.083 Cl
ATOM     40  C23 CPB d          39.670  41.178  32.315  0.00  0.00    -0.061 A 
ATOM     41  C24 CPB d          40.475  41.015  33.441  0.00  0.00    -0.081 A 
ATOM     42  H17 CPB d          39.455  42.172  31.940  0.00  0.00     0.086 H 
ATOM     43  C25 CPB d          40.749  39.735  33.924  0.00  0.00    -0.082 A 
ATOM     44  H18 CPB d          40.889  41.883  33.940  0.00  0.00     0.083 H 
ATOM     45  C26 CPB d          40.223  38.618  33.288  0.00  0.00    -0.069 A 
ATOM     46  H19 CPB d          41.375  39.612  34.801  0.00  0.00     0.083 H 
ATOM     47  H20 CPB d          40.436  37.628  33.675  0.00  0.00     0.085 H 
ENDBRANCH   4  37
BRANCH   9  48
ATOM     48  O5  CPB d          36.299  33.460  30.317  0.00  0.00    -0.360 OA
ATOM     49  H14 CPB d          35.441  33.696  29.986  0.00  0.00     0.217 HD
ENDBRANCH   9  48
TORSDOF 6
ENDMDL
MODEL 8
REMARK VINA RESULT:      -8.2      2.270      3.790
REMARK  6 active torsions:
REMARK  status: ('A' for Active; 'I' for Inactive)
REMARK    1  A    between atoms: C1_1  and  N1_2 
REMARK    2  A    between atoms: C14_5  and  C8_8 
REMARK    3  A    between atoms: C13_6  and  O3_28 
REMARK    4  A    between atoms: C2_11  and  C21_21 
REMARK    5  A    between atoms: C5_16  and  O5_17 
REMARK    6  A    between atoms: C7_19  and  O7_20 
ROOT
ATOM      1  C8  CPB d          38.405  36.984  31.613  0.00  0.00     0.017 A 
ATOM      2  C9  CPB d          38.604  36.414  30.344  0.00  0.00     0.102 A 
ATOM      3  O1  CPB d          39.513  37.005  29.499  0.00  0.00    -0.308 OA
ATOM      4  C2  CPB d          39.760  36.445  28.272  0.00  0.00     0.091 A 
ATOM      5  C3  CPB d          39.070  35.303  27.867  0.00  0.00    -0.000 A 
ATOM      6  C4  CPB d          38.121  34.716  28.699  0.00  0.00     0.190 A 
ATOM      7  O4  CPB d          37.520  33.708  28.323  0.00  0.00    -0.287 OA
ATOM      8  C10 CPB d          37.887  35.273  29.958  0.00  0.00     0.082 A 
ATOM      9  C5  CPB d          36.988  34.681  30.853  0.00  0.00     0.085 A 
ATOM     10  C6  CPB d          36.787  35.244  32.105  0.00  0.00    -0.017 A 
ATOM     11  C7  CPB d          37.482  36.390  32.486  0.00  0.00     0.077 A 
ATOM     12  H13 CPB d          39.275  34.867  26.891  0.00  0.00     0.094 H 
ATOM     13  H15 CPB d          36.084  34.788  32.792  0.00  0.00     0.092 H 
ENDROOT
BRANCH   1  14
ATOM     14  C14 CPB d          39.226  38.265  31.960  0.00  0.00     0.005 C 
ATOM     15  C15 CPB d          40.712  38.103  31.604  0.00  0.00    -0.033 C 
ATOM     16  C16 CPB d          41.491  39.373  31.993  0.00  0.00     0.084 C 
ATOM     17  H7  CPB d          41.125  37.242  32.149  0.00  0.00     0.036 H 
ATOM     18  H8  CPB d          40.810  37.934  30.522  0.00  0.00     0.036 H 
ATOM     19  N1  CPB d          40.881  40.571  31.369  0.00  0.00    -0.072 N 
ATOM     20  H5  CPB d          41.473  39.487  33.087  0.00  0.00     0.076 H 
ATOM     21  H6  CPB d          42.532  39.278  31.651  0.00  0.00     0.076 H 
ATOM     22  C12 CPB d          39.485  40.770  31.824  0.00  0.00     0.107 C 
ATOM     23  H4  CPB d          40.887  40.459  30.367  0.00  0.00     0.279 HD
ATOM     24  C13 CPB d          38.637  39.574  31.381  0.00  0.00     0.066 C 
ATOM     25  H11 CPB d          39.081  41.692  31.380  0.00  0.00     0.080 H 
ATOM     26  H12 CPB d          39.464  40.851  32.921  0.00  0.00     0.080 H 
ATOM     27  H10 CPB d          37.606  39.696  31.745  0.00  0.00     0.086 H 
ATOM     28  H9  CPB d          39.176  38.368  33.054  0.00  0.00     0.051 H 
BRANCH  19  29
ATOM     29  C1  CPB d          41.678  41.753  31.738  0.00  0.00     0.066 C 
ATOM     30  H1  CPB d          42.554  41.826  31.077  0.00  0.00     0.068 H 
ATOM     31  H2  CPB d          42.012  41.658  32.782  0.00  0.00     0.068 H 
ATOM     32  H3  CPB d          41.062  42.658  31.631  0.00  0.00     0.068 H 
ENDBRANCH  19  29
BRANCH  24  33
ATOM     33  O3  CPB d          38.636  39.538  29.955  0.00  0.00    -0.393 OA
ATOM     34  H21 CPB d          37.753  39.680  29.635  0.00  0.00     0.210 HD
ENDBRANCH  24  33
ENDBRANCH   1  14
BRANCH  11  35
ATOM     35  O7  CPB d          37.233  36.881  33.728  0.00  0.00    -0.360 OA
ATOM     36  H16 CPB d          37.275  36.174  34.362  0.00  0.00     0.217 HD
ENDBRANCH  11  35
BRANCH   4  37
ATOM     37  C21 CPB d          40.730  37.004  27.427  0.00  0.00     0.020 A 
ATOM     38  C22 CPB d          42.112  36.867  27.650  0.00  0.00     0.047 A 
ATOM     39 CL1  CPB d          42.739  36.015  29.016  0.00  0.00    -0.083 Cl
ATOM     40  C23 CPB d          43.031  37.433  26.766  0.00  0.00    -0.061 A 
ATOM     41  C24 CPB d          42.579  38.133  25.650  0.00  0.00    -0.081 A 
ATOM     42  H17 CPB d          44.095  37.328  26.947  0.00  0.00     0.086 H 
ATOM     43  C25 CPB d          41.210  38.265  25.415  0.00  0.00    -0.082 A 
ATOM     44  H18 CPB d          43.291  38.575  24.963  0.00  0.00     0.083 H 
ATOM     45  C26 CPB d          40.292  37.703  26.292  0.00  0.00    -0.069 A 
ATOM     46  H19 CPB d          40.862  38.809  24.545  0.00  0.00     0.083 H 
ATOM     47  H20 CPB d          39.230  37.805  26.099  0.00  0.00     0.085 H 
ENDBRANCH   4  37
BRANCH   9  48
ATOM     48  O5  CPB d          36.286  33.559  30.524  0.00  0.00    -0.360 OA
ATOM     49  H14 CPB d          36.675  33.157  29.757  0.00  0.00     0.217 HD
ENDBRANCH   9  48
TORSDOF 6
ENDMDL
MODEL 9
REMARK VINA RESULT:      -7.4      2.455      4.433
REMARK  6 active torsions:
REMARK  status: ('A' for Active; 'I' for Inactive)
REMARK    1  A    between atoms: C1_1  and  N1_2 
REMARK    2  A    between atoms: C14_5  and  C8_8 
REMARK    3  A    between atoms: C13_6  and  O3_28 
REMARK    4  A    between atoms: C2_11  and  C21_21 
REMARK    5  A    between atoms: C5_16  and  O5_17 
REMARK    6  A    between atoms: C7_19  and  O7_20 
ROOT
ATOM      1  C8  CPB d          38.808  37.180  30.750  0.00  0.00     0.017 A 
ATOM      2  C9  CPB d          39.171  36.709  29.477  0.00  0.00     0.102 A 
ATOM      3  O1  CPB d          40.059  37.453  28.736  0.00  0.00    -0.308 OA
ATOM      4  C2  CPB d          40.464  36.995  27.508  0.00  0.00     0.091 A 
ATOM      5  C3  CPB d          39.957  35.801  26.998  0.00  0.00    -0.000 A 
ATOM      6  C4  CPB d          39.032  35.057  27.723  0.00  0.00     0.190 A 
ATOM      7  O4  CPB d          38.592  34.005  27.255  0.00  0.00    -0.287 OA
ATOM      8  C10 CPB d          38.635  35.511  28.983  0.00  0.00     0.082 A 
ATOM      9  C5  CPB d          37.755  34.765  29.775  0.00  0.00     0.085 A 
ATOM     10  C6  CPB d          37.392  35.229  31.031  0.00  0.00    -0.017 A 
ATOM     11  C7  CPB d          37.906  36.429  31.519  0.00  0.00     0.077 A 
ATOM     12  H13 CPB d          40.288  35.448  26.023  0.00  0.00     0.094 H 
ATOM     13  H15 CPB d          36.703  34.653  31.638  0.00  0.00     0.092 H 
ENDROOT
BRANCH   1  14
ATOM     14  C14 CPB d          39.432  38.530  31.220  0.00  0.00     0.005 C 
ATOM     15  C15 CPB d          38.357  39.603  31.455  0.00  0.00    -0.033 C 
ATOM     16  C16 CPB d          39.015  40.927  31.884  0.00  0.00     0.084 C 
ATOM     17  H7  CPB d          37.792  39.762  30.525  0.00  0.00     0.036 H 
ATOM     18  H8  CPB d          37.673  39.264  32.247  0.00  0.00     0.036 H 
ATOM     19  N1  CPB d          39.883  40.719  33.066  0.00  0.00    -0.072 N 
ATOM     20  H5  CPB d          39.622  41.314  31.053  0.00  0.00     0.076 H 
ATOM     21  H6  CPB d          38.231  41.656  32.135  0.00  0.00     0.076 H 
ATOM     22  C12 CPB d          40.983  39.771  32.774  0.00  0.00     0.107 C 
ATOM     23  H4  CPB d          39.326  40.353  33.823  0.00  0.00     0.279 HD
ATOM     24  C13 CPB d          40.388  38.402  32.430  0.00  0.00     0.066 C 
ATOM     25  H11 CPB d          41.634  39.679  33.656  0.00  0.00     0.080 H 
ATOM     26  H12 CPB d          41.571  40.142  31.921  0.00  0.00     0.080 H 
ATOM     27  H10 CPB d          41.197  37.700  32.177  0.00  0.00     0.086 H 
ATOM     28  H9  CPB d          40.049  38.885  30.381  0.00  0.00     0.051 H 
BRANCH  19  29
ATOM     29  C1  CPB d          40.461  42.015  33.462  0.00  0.00     0.066 C 
ATOM     30  H1  CPB d          41.538  42.019  33.241  0.00  0.00     0.068 H 
ATOM     31  H2  CPB d          40.307  42.171  34.540  0.00  0.00     0.068 H 
ATOM     32  H3  CPB d          39.969  42.823  32.900  0.00  0.00     0.068 H 
ENDBRANCH  19  29
BRANCH  24  33
ATOM     33  O3  CPB d          39.687  37.926  33.577  0.00  0.00    -0.393 OA
ATOM     34  H21 CPB d          38.895  38.436  33.697  0.00  0.00     0.210 HD
ENDBRANCH  24  33
ENDBRANCH   1  14
BRANCH  11  35
ATOM     35  O7  CPB d          37.505  36.817  32.758  0.00  0.00    -0.360 OA
ATOM     36  H16 CPB d          36.634  36.478  32.929  0.00  0.00     0.217 HD
ENDBRANCH  11  35
BRANCH   4  37
ATOM     37  C21 CPB d          41.416  37.715  26.770  0.00  0.00     0.020 A 
ATOM     38  C22 CPB d          41.163  38.989  26.229  0.00  0.00     0.047 A 
ATOM     39 CL1  CPB d          39.632  39.771  26.404  0.00  0.00    -0.083 Cl
ATOM     40  C23 CPB d          42.153  39.664  25.516  0.00  0.00    -0.061 A 
ATOM     41  C24 CPB d          43.406  39.078  25.343  0.00  0.00    -0.081 A 
ATOM     42  H17 CPB d          41.950  40.644  25.098  0.00  0.00     0.086 H 
ATOM     43  C25 CPB d          43.668  37.819  25.884  0.00  0.00    -0.082 A 
ATOM     44  H18 CPB d          44.176  39.600  24.788  0.00  0.00     0.083 H 
ATOM     45  C26 CPB d          42.685  37.143  26.595  0.00  0.00    -0.069 A 
ATOM     46  H19 CPB d          44.643  37.366  25.749  0.00  0.00     0.083 H 
ATOM     47  H20 CPB d          42.900  36.169  27.018  0.00  0.00     0.085 H 
ENDBRANCH   4  37
BRANCH   9  48
ATOM     48  O5  CPB d          37.227  33.585  29.341  0.00  0.00    -0.360 OA
ATOM     49  H14 CPB d          36.952  33.068  30.089  0.00  0.00     0.217 HD
ENDBRANCH   9  48
TORSDOF 6
ENDMDL
MODEL 10
REMARK VINA RESULT:      -7.0      2.781      6.532
REMARK  6 active torsions:
REMARK  status: ('A' for Active; 'I' for Inactive)
REMARK    1  A    between atoms: C1_1  and  N1_2 
REMARK    2  A    between atoms: C14_5  and  C8_8 
REMARK    3  A    between atoms: C13_6  and  O3_28 
REMARK    4  A    between atoms: C2_11  and  C21_21 
REMARK    5  A    between atoms: C5_16  and  O5_17 
REMARK    6  A    between atoms: C7_19  and  O7_20 
ROOT
ATOM      1  C8  CPB d          40.206  37.042  27.587  0.00  0.00     0.017 A 
ATOM      2  C9  CPB d          39.781  37.654  28.779  0.00  0.00     0.102 A 
ATOM      3  O1  CPB d          39.020  36.917  29.654  0.00  0.00    -0.308 OA
ATOM      4  C2  CPB d          38.629  37.474  30.845  0.00  0.00     0.091 A 
ATOM      5  C3  CPB d          38.970  38.789  31.154  0.00  0.00    -0.000 A 
ATOM      6  C4  CPB d          39.711  39.558  30.260  0.00  0.00     0.190 A 
ATOM      7  O4  CPB d          40.002  40.720  30.550  0.00  0.00    -0.287 OA
ATOM      8  C10 CPB d          40.129  38.984  29.058  0.00  0.00     0.082 A 
ATOM      9  C5  CPB d          40.928  39.697  28.157  0.00  0.00     0.085 A 
ATOM     10  C6  CPB d          41.346  39.096  26.979  0.00  0.00    -0.017 A 
ATOM     11  C7  CPB d          40.986  37.782  26.686  0.00  0.00     0.077 A 
ATOM     12  H13 CPB d          38.655  39.220  32.102  0.00  0.00     0.094 H 
ATOM     13  H15 CPB d          41.957  39.655  26.279  0.00  0.00     0.092 H 
ENDROOT
BRANCH   1  14
ATOM     14  C14 CPB d          39.761  35.568  27.340  0.00  0.00     0.005 C 
ATOM     15  C15 CPB d          38.609  35.156  28.270  0.00  0.00    -0.033 C 
ATOM     16  C16 CPB d          38.224  33.687  28.018  0.00  0.00     0.084 C 
ATOM     17  H7  CPB d          38.926  35.275  29.316  0.00  0.00     0.036 H 
ATOM     18  H8  CPB d          37.738  35.799  28.076  0.00  0.00     0.036 H 
ATOM     19  N1  CPB d          37.908  33.469  26.587  0.00  0.00    -0.072 N 
ATOM     20  H5  CPB d          39.064  33.039  28.306  0.00  0.00     0.076 H 
ATOM     21  H6  CPB d          37.341  33.435  28.624  0.00  0.00     0.076 H 
ATOM     22  C12 CPB d          39.076  33.758  25.722  0.00  0.00     0.107 C 
ATOM     23  H4  CPB d          37.146  34.073  26.322  0.00  0.00     0.279 HD
ATOM     24  C13 CPB d          39.449  35.238  25.860  0.00  0.00     0.066 C 
ATOM     25  H11 CPB d          38.822  33.539  24.674  0.00  0.00     0.080 H 
ATOM     26  H12 CPB d          39.927  33.133  26.031  0.00  0.00     0.080 H 
ATOM     27  H10 CPB d          40.338  35.454  25.248  0.00  0.00     0.086 H 
ATOM     28  H9  CPB d          40.623  34.942  27.615  0.00  0.00     0.051 H 
BRANCH  19  29
ATOM     29  C1  CPB d          37.512  32.063  26.399  0.00  0.00     0.066 C 
ATOM     30  H1  CPB d          36.545  32.022  25.876  0.00  0.00     0.068 H 
ATOM     31  H2  CPB d          37.419  31.575  27.381  0.00  0.00     0.068 H 
ATOM     32  H3  CPB d          38.274  31.543  25.801  0.00  0.00     0.068 H 
ENDBRANCH  19  29
BRANCH  24  33
ATOM     33  O3  CPB d          38.349  36.015  25.392  0.00  0.00    -0.393 OA
ATOM     34  H21 CPB d          38.060  36.602  26.082  0.00  0.00     0.210 HD
ENDBRANCH  24  33
ENDBRANCH   1  14
BRANCH  11  35
ATOM     35  O7  CPB d          41.435  37.263  25.513  0.00  0.00    -0.360 OA
ATOM     36  H16 CPB d          40.693  37.000  24.980  0.00  0.00     0.217 HD
ENDBRANCH  11  35
BRANCH   4  37
ATOM     37  C21 CPB d          37.903  36.711  31.772  0.00  0.00     0.020 A 
ATOM     38  C22 CPB d          37.887  36.991  33.150  0.00  0.00     0.047 A 
ATOM     39 CL1  CPB d          38.794  38.295  33.830  0.00  0.00    -0.083 Cl
ATOM     40  C23 CPB d          37.134  36.206  34.024  0.00  0.00    -0.061 A 
ATOM     41  C24 CPB d          36.387  35.140  33.528  0.00  0.00    -0.081 A 
ATOM     42  H17 CPB d          37.131  36.425  35.086  0.00  0.00     0.086 H 
ATOM     43  C25 CPB d          36.389  34.861  32.162  0.00  0.00    -0.082 A 
ATOM     44  H18 CPB d          35.803  34.527  34.205  0.00  0.00     0.083 H 
ATOM     45  C26 CPB d          37.136  35.640  31.289  0.00  0.00    -0.069 A 
ATOM     46  H19 CPB d          35.805  34.031  31.779  0.00  0.00     0.083 H 
ATOM     47  H20 CPB d          37.127  35.420  30.227  0.00  0.00     0.085 H 
ENDBRANCH   4  37
BRANCH   9  48
ATOM     48  O5  CPB d          41.305  40.984  28.400  0.00  0.00    -0.360 OA
ATOM     49  H14 CPB d          40.547  41.552  28.336  0.00  0.00     0.217 HD
ENDBRANCH   9  48
TORSDOF 6
ENDMDL
