MODEL 1
REMARK VINA RESULT:      -6.4      0.000      0.000
REMARK  7 active torsions:
REMARK  status: ('A' for Active; 'I' for Inactive)
REMARK    1  A    between atoms: C1_1  and  O1_8 
REMARK    2  A    between atoms: C2_2  and  O2_9 
REMARK    3  A    between atoms: C3_3  and  O3_10 
REMARK    4  A    between atoms: C4_4  and  O4_11 
REMARK    5  A    between atoms: C5_5  and  C6_6 
REMARK    6  A    between atoms: C6_6  and  O6_13 
REMARK    7  A    between atoms: O1_8  and  C7_7 
ROOT
ATOM      1  C1  MMA d          -4.431 -17.725  -5.888  0.00  0.00     0.158 C 
ATOM      2  C2  MMA d          -3.645 -17.026  -4.765  0.00  0.00     0.110 C 
ATOM      3  C3  MMA d          -4.571 -16.581  -3.631  0.00  0.00     0.092 C 
ATOM      4  C4  MMA d          -5.744 -15.770  -4.182  0.00  0.00     0.090 C 
ATOM      5  C5  MMA d          -6.474 -16.672  -5.172  0.00  0.00     0.089 C 
ATOM      6  O5  MMA d          -5.578 -16.957  -6.264  0.00  0.00    -0.349 OA
ATOM      7  H1  MMA d          -3.779 -17.871  -6.763  0.00  0.00     0.133 H 
ATOM      8  H2  MMA d          -2.898 -17.727  -4.364  0.00  0.00     0.094 H 
ATOM      9  H3  MMA d          -4.944 -17.464  -3.091  0.00  0.00     0.091 H 
ATOM     10  H4  MMA d          -5.361 -14.889  -4.718  0.00  0.00     0.091 H 
ATOM     11  H5  MMA d          -6.735 -17.611  -4.662  0.00  0.00     0.090 H 
ENDROOT
BRANCH   1  12
ATOM     12  O1  MMA d          -4.874 -18.988  -5.384  0.00  0.00    -0.363 OA
BRANCH  12  13
ATOM     13  C7  MMA d          -3.775 -19.904  -5.198  0.00  0.00     0.007 C 
ATOM     14  H8  MMA d          -3.831 -20.702  -5.952  0.00  0.00     0.066 H 
ATOM     15  H9  MMA d          -3.832 -20.345  -4.192  0.00  0.00     0.066 H 
ATOM     16  H10 MMA d          -2.823 -19.362  -5.308  0.00  0.00     0.066 H 
ENDBRANCH  12  13
ENDBRANCH   1  12
BRANCH   2  17
ATOM     17  O2  MMA d          -2.976 -15.861  -5.299  0.00  0.00    -0.388 OA
ATOM     18  H11 MMA d          -3.045 -15.145  -4.678  0.00  0.00     0.210 HD
ENDBRANCH   2  17
BRANCH   3  19
ATOM     19  O3  MMA d          -3.844 -15.717  -2.735  0.00  0.00    -0.390 OA
ATOM     20  H12 MMA d          -4.095 -14.814  -2.893  0.00  0.00     0.210 HD
ENDBRANCH   3  19
BRANCH   5  21
ATOM     21  C6  MMA d          -7.760 -16.046  -5.716  0.00  0.00     0.043 C 
ATOM     22  H6  MMA d          -8.036 -15.165  -5.117  0.00  0.00     0.078 H 
ATOM     23  H7  MMA d          -8.580 -16.779  -5.687  0.00  0.00     0.078 H 
BRANCH  21  24
ATOM     24  O6  MMA d          -7.489 -15.655  -7.083  0.00  0.00    -0.398 OA
ATOM     25  H14 MMA d          -6.550 -15.653  -7.230  0.00  0.00     0.209 HD
ENDBRANCH  21  24
ENDBRANCH   5  21
BRANCH   4  26
ATOM     26  O4  MMA d          -6.588 -15.312  -3.100  0.00  0.00    -0.390 OA
ATOM     27  H13 MMA d          -7.025 -14.509  -3.359  0.00  0.00     0.210 HD
ENDBRANCH   4  26
TORSDOF 7
ENDMDL
MODEL 2
REMARK VINA RESULT:      -5.5      1.697      3.838
REMARK  7 active torsions:
REMARK  status: ('A' for Active; 'I' for Inactive)
REMARK    1  A    between atoms: C1_1  and  O1_8 
REMARK    2  A    between atoms: C2_2  and  O2_9 
REMARK    3  A    between atoms: C3_3  and  O3_10 
REMARK    4  A    between atoms: C4_4  and  O4_11 
REMARK    5  A    between atoms: C5_5  and  C6_6 
REMARK    6  A    between atoms: C6_6  and  O6_13 
REMARK    7  A    between atoms: O1_8  and  C7_7 
ROOT
ATOM      1  C1  MMA d          -6.715 -18.240  -4.135  0.00  0.00     0.158 C 
ATOM      2  C2  MMA d          -6.897 -16.722  -4.299  0.00  0.00     0.110 C 
ATOM      3  C3  MMA d          -5.696 -16.088  -5.003  0.00  0.00     0.092 C 
ATOM      4  C4  MMA d          -4.393 -16.499  -4.316  0.00  0.00     0.090 C 
ATOM      5  C5  MMA d          -4.329 -18.021  -4.372  0.00  0.00     0.089 C 
ATOM      6  O5  MMA d          -5.424 -18.546  -3.596  0.00  0.00    -0.349 OA
ATOM      7  H1  MMA d          -7.497 -18.640  -3.472  0.00  0.00     0.133 H 
ATOM      8  H2  MMA d          -7.803 -16.534  -4.894  0.00  0.00     0.094 H 
ATOM      9  H3  MMA d          -5.680 -16.399  -6.058  0.00  0.00     0.091 H 
ATOM     10  H4  MMA d          -4.417 -16.181  -3.263  0.00  0.00     0.091 H 
ATOM     11  H5  MMA d          -4.442 -18.338  -5.419  0.00  0.00     0.090 H 
ENDROOT
BRANCH   1  12
ATOM     12  O1  MMA d          -6.816 -18.830  -5.434  0.00  0.00    -0.363 OA
BRANCH  12  13
ATOM     13  C7  MMA d          -8.165 -18.771  -5.943  0.00  0.00     0.007 C 
ATOM     14  H8  MMA d          -8.583 -17.772  -5.757  0.00  0.00     0.066 H 
ATOM     15  H9  MMA d          -8.782 -19.527  -5.435  0.00  0.00     0.066 H 
ATOM     16  H10 MMA d          -8.157 -18.970  -7.025  0.00  0.00     0.066 H 
ENDBRANCH  12  13
ENDBRANCH   1  12
BRANCH   2  17
ATOM     17  O2  MMA d          -7.043 -16.112  -2.995  0.00  0.00    -0.388 OA
ATOM     18  H11 MMA d          -7.242 -16.783  -2.353  0.00  0.00     0.210 HD
ENDBRANCH   2  17
BRANCH   3  19
ATOM     19  O3  MMA d          -5.791 -14.653  -4.906  0.00  0.00    -0.390 OA
ATOM     20  H12 MMA d          -6.334 -14.324  -5.614  0.00  0.00     0.210 HD
ENDBRANCH   3  19
BRANCH   5  21
ATOM     21  C6  MMA d          -3.009 -18.585  -3.839  0.00  0.00     0.043 C 
ATOM     22  H6  MMA d          -2.345 -18.851  -4.675  0.00  0.00     0.078 H 
ATOM     23  H7  MMA d          -3.199 -19.476  -3.224  0.00  0.00     0.078 H 
BRANCH  21  24
ATOM     24  O6  MMA d          -2.405 -17.544  -3.035  0.00  0.00    -0.398 OA
ATOM     25  H14 MMA d          -3.087 -16.995  -2.665  0.00  0.00     0.209 HD
ENDBRANCH  21  24
ENDBRANCH   5  21
BRANCH   4  26
ATOM     26  O4  MMA d          -3.265 -15.857  -4.958  0.00  0.00    -0.390 OA
ATOM     27  H13 MMA d          -3.535 -15.013  -5.299  0.00  0.00     0.210 HD
ENDBRANCH   4  26
TORSDOF 7
ENDMDL
MODEL 3
REMARK VINA RESULT:      -4.9      1.937      4.038
REMARK  7 active torsions:
REMARK  status: ('A' for Active; 'I' for Inactive)
REMARK    1  A    between atoms: C1_1  and  O1_8 
REMARK    2  A    between atoms: C2_2  and  O2_9 
REMARK    3  A    between atoms: C3_3  and  O3_10 
REMARK    4  A    between atoms: C4_4  and  O4_11 
REMARK    5  A    between atoms: C5_5  and  C6_6 
REMARK    6  A    between atoms: C6_6  and  O6_13 
REMARK    7  A    between atoms: O1_8  and  C7_7 
ROOT
ATOM      1  C1  MMA d          -6.754 -18.390  -3.728  0.00  0.00     0.158 C 
ATOM      2  C2  MMA d          -7.062 -17.307  -4.777  0.00  0.00     0.110 C 
ATOM      3  C3  MMA d          -5.970 -17.240  -5.846  0.00  0.00     0.092 C 
ATOM      4  C4  MMA d          -4.590 -17.119  -5.198  0.00  0.00     0.090 C 
ATOM      5  C5  MMA d          -4.417 -18.342  -4.306  0.00  0.00     0.089 C 
ATOM      6  O5  MMA d          -5.406 -18.279  -3.259  0.00  0.00    -0.349 OA
ATOM      7  H1  MMA d          -7.449 -18.296  -2.881  0.00  0.00     0.133 H 
ATOM      8  H2  MMA d          -8.023 -17.541  -5.258  0.00  0.00     0.094 H 
ATOM      9  H3  MMA d          -6.013 -18.141  -6.475  0.00  0.00     0.091 H 
ATOM     10  H4  MMA d          -4.555 -16.214  -4.575  0.00  0.00     0.091 H 
ATOM     11  H5  MMA d          -4.587 -19.245  -4.911  0.00  0.00     0.090 H 
ENDROOT
BRANCH   1  12
ATOM     12  O1  MMA d          -6.911 -19.662  -4.361  0.00  0.00    -0.363 OA
BRANCH  12  13
ATOM     13  C7  MMA d          -8.296 -19.948  -4.646  0.00  0.00     0.007 C 
ATOM     14  H8  MMA d          -8.705 -19.167  -5.302  0.00  0.00     0.066 H 
ATOM     15  H9  MMA d          -8.866 -19.972  -3.705  0.00  0.00     0.066 H 
ATOM     16  H10 MMA d          -8.374 -20.925  -5.146  0.00  0.00     0.066 H 
ENDBRANCH  12  13
ENDBRANCH   1  12
BRANCH   2  17
ATOM     17  O2  MMA d          -7.150 -16.018  -4.126  0.00  0.00    -0.388 OA
ATOM     18  H11 MMA d          -7.406 -16.140  -3.219  0.00  0.00     0.210 HD
ENDBRANCH   2  17
BRANCH   3  19
ATOM     19  O3  MMA d          -6.164 -16.060  -6.651  0.00  0.00    -0.390 OA
ATOM     20  H12 MMA d          -5.579 -15.373  -6.351  0.00  0.00     0.210 HD
ENDBRANCH   3  19
BRANCH   5  21
ATOM     21  C6  MMA d          -3.021 -18.437  -3.684  0.00  0.00     0.043 C 
ATOM     22  H6  MMA d          -2.320 -18.902  -4.394  0.00  0.00     0.078 H 
ATOM     23  H7  MMA d          -3.057 -19.034  -2.761  0.00  0.00     0.078 H 
BRANCH  21  24
ATOM     24  O6  MMA d          -2.604 -17.083  -3.386  0.00  0.00    -0.398 OA
ATOM     25  H14 MMA d          -2.028 -17.089  -2.630  0.00  0.00     0.209 HD
ENDBRANCH  21  24
ENDBRANCH   5  21
BRANCH   4  26
ATOM     26  O4  MMA d          -3.567 -17.008  -6.217  0.00  0.00    -0.390 OA
ATOM     27  H13 MMA d          -3.950 -17.183  -7.068  0.00  0.00     0.210 HD
ENDBRANCH   4  26
TORSDOF 7
ENDMDL
MODEL 4
REMARK VINA RESULT:      -4.7      2.284      4.030
REMARK  7 active torsions:
REMARK  status: ('A' for Active; 'I' for Inactive)
REMARK    1  A    between atoms: C1_1  and  O1_8 
REMARK    2  A    between atoms: C2_2  and  O2_9 
REMARK    3  A    between atoms: C3_3  and  O3_10 
REMARK    4  A    between atoms: C4_4  and  O4_11 
REMARK    5  A    between atoms: C5_5  and  C6_6 
REMARK    6  A    between atoms: C6_6  and  O6_13 
REMARK    7  A    between atoms: O1_8  and  C7_7 
ROOT
ATOM      1  C1  MMA d          -7.145 -17.974  -2.983  0.00  0.00     0.158 C 
ATOM      2  C2  MMA d          -7.336 -16.595  -3.637  0.00  0.00     0.110 C 
ATOM      3  C3  MMA d          -6.556 -16.487  -4.948  0.00  0.00     0.092 C 
ATOM      4  C4  MMA d          -5.096 -16.892  -4.741  0.00  0.00     0.090 C 
ATOM      5  C5  MMA d          -5.109 -18.325  -4.220  0.00  0.00     0.089 C 
ATOM      6  O5  MMA d          -5.759 -18.330  -2.934  0.00  0.00    -0.349 OA
ATOM      7  H1  MMA d          -7.561 -17.964  -1.964  0.00  0.00     0.133 H 
ATOM      8  H2  MMA d          -8.406 -16.443  -3.841  0.00  0.00     0.094 H 
ATOM      9  H3  MMA d          -7.021 -17.132  -5.709  0.00  0.00     0.091 H 
ATOM     10  H4  MMA d          -4.639 -16.241  -3.982  0.00  0.00     0.091 H 
ATOM     11  H5  MMA d          -5.686 -18.946  -4.920  0.00  0.00     0.090 H 
ENDROOT
BRANCH   1  12
ATOM     12  O1  MMA d          -7.832 -18.934  -3.790  0.00  0.00    -0.363 OA
BRANCH  12  13
ATOM     13  C7  MMA d          -8.282 -20.062  -3.011  0.00  0.00     0.007 C 
ATOM     14  H8  MMA d          -9.171 -20.503  -3.484  0.00  0.00     0.066 H 
ATOM     15  H9  MMA d          -8.536 -19.727  -1.994  0.00  0.00     0.066 H 
ATOM     16  H10 MMA d          -7.481 -20.815  -2.961  0.00  0.00     0.066 H 
ENDBRANCH  12  13
ENDBRANCH   1  12
BRANCH   2  17
ATOM     17  O2  MMA d          -6.867 -15.566  -2.735  0.00  0.00    -0.388 OA
ATOM     18  H11 MMA d          -6.104 -15.882  -2.264  0.00  0.00     0.210 HD
ENDBRANCH   2  17
BRANCH   3  19
ATOM     19  O3  MMA d          -6.555 -15.115  -5.390  0.00  0.00    -0.390 OA
ATOM     20  H12 MMA d          -6.684 -15.085  -6.331  0.00  0.00     0.210 HD
ENDBRANCH   3  19
BRANCH   5  21
ATOM     21  C6  MMA d          -3.707 -18.926  -4.086  0.00  0.00     0.043 C 
ATOM     22  H6  MMA d          -3.367 -19.314  -5.058  0.00  0.00     0.078 H 
ATOM     23  H7  MMA d          -3.714 -19.741  -3.348  0.00  0.00     0.078 H 
BRANCH  21  24
ATOM     24  O6  MMA d          -2.836 -17.859  -3.643  0.00  0.00    -0.398 OA
ATOM     25  H14 MMA d          -2.712 -17.923  -2.703  0.00  0.00     0.209 HD
ENDBRANCH  21  24
ENDBRANCH   5  21
BRANCH   4  26
ATOM     26  O4  MMA d          -4.354 -16.741  -5.974  0.00  0.00    -0.390 OA
ATOM     27  H13 MMA d          -3.653 -16.114  -5.845  0.00  0.00     0.210 HD
ENDBRANCH   4  26
TORSDOF 7
ENDMDL
MODEL 5
REMARK VINA RESULT:      -4.7      1.580      1.832
REMARK  7 active torsions:
REMARK  status: ('A' for Active; 'I' for Inactive)
REMARK    1  A    between atoms: C1_1  and  O1_8 
REMARK    2  A    between atoms: C2_2  and  O2_9 
REMARK    3  A    between atoms: C3_3  and  O3_10 
REMARK    4  A    between atoms: C4_4  and  O4_11 
REMARK    5  A    between atoms: C5_5  and  C6_6 
REMARK    6  A    between atoms: C6_6  and  O6_13 
REMARK    7  A    between atoms: O1_8  and  C7_7 
ROOT
ATOM      1  C1  MMA d          -4.316 -17.780  -4.874  0.00  0.00     0.158 C 
ATOM      2  C2  MMA d          -4.554 -16.464  -4.114  0.00  0.00     0.110 C 
ATOM      3  C3  MMA d          -5.950 -16.425  -3.490  0.00  0.00     0.092 C 
ATOM      4  C4  MMA d          -7.015 -16.754  -4.536  0.00  0.00     0.090 C 
ATOM      5  C5  MMA d          -6.688 -18.142  -5.074  0.00  0.00     0.089 C 
ATOM      6  O5  MMA d          -5.413 -18.074  -5.745  0.00  0.00    -0.349 OA
ATOM      7  H1  MMA d          -3.387 -17.709  -5.461  0.00  0.00     0.133 H 
ATOM      8  H2  MMA d          -3.801 -16.372  -3.318  0.00  0.00     0.094 H 
ATOM      9  H3  MMA d          -6.003 -17.144  -2.659  0.00  0.00     0.091 H 
ATOM     10  H4  MMA d          -6.957 -16.028  -5.360  0.00  0.00     0.091 H 
ATOM     11  H5  MMA d          -6.615 -18.838  -4.226  0.00  0.00     0.090 H 
ENDROOT
BRANCH   1  12
ATOM     12  O1  MMA d          -4.211 -18.826  -3.905  0.00  0.00    -0.363 OA
BRANCH  12  13
ATOM     13  C7  MMA d          -2.838 -19.093  -3.554  0.00  0.00     0.007 C 
ATOM     14  H8  MMA d          -2.677 -20.179  -3.502  0.00  0.00     0.066 H 
ATOM     15  H9  MMA d          -2.616 -18.643  -2.575  0.00  0.00     0.066 H 
ATOM     16  H10 MMA d          -2.173 -18.660  -4.316  0.00  0.00     0.066 H 
ENDBRANCH  12  13
ENDBRANCH   1  12
BRANCH   2  17
ATOM     17  O2  MMA d          -4.426 -15.351  -5.029  0.00  0.00    -0.388 OA
ATOM     18  H11 MMA d          -5.256 -14.890  -5.084  0.00  0.00     0.210 HD
ENDBRANCH   2  17
BRANCH   3  19
ATOM     19  O3  MMA d          -6.221 -15.092  -3.014  0.00  0.00    -0.390 OA
ATOM     20  H12 MMA d          -5.400 -14.647  -2.835  0.00  0.00     0.210 HD
ENDBRANCH   3  19
BRANCH   5  21
ATOM     21  C6  MMA d          -7.747 -18.673  -6.043  0.00  0.00     0.043 C 
ATOM     22  H6  MMA d          -8.477 -19.295  -5.503  0.00  0.00     0.078 H 
ATOM     23  H7  MMA d          -7.271 -19.271  -6.834  0.00  0.00     0.078 H 
BRANCH  21  24
ATOM     24  O6  MMA d          -8.404 -17.519  -6.618  0.00  0.00    -0.398 OA
ATOM     25  H14 MMA d          -9.288 -17.754  -6.874  0.00  0.00     0.209 HD
ENDBRANCH  21  24
ENDBRANCH   5  21
BRANCH   4  26
ATOM     26  O4  MMA d          -8.336 -16.668  -3.949  0.00  0.00    -0.390 OA
ATOM     27  H13 MMA d          -8.407 -17.295  -3.239  0.00  0.00     0.210 HD
ENDBRANCH   4  26
TORSDOF 7
ENDMDL
MODEL 6
REMARK VINA RESULT:      -4.7      1.702      2.131
REMARK  7 active torsions:
REMARK  status: ('A' for Active; 'I' for Inactive)
REMARK    1  A    between atoms: C1_1  and  O1_8 
REMARK    2  A    between atoms: C2_2  and  O2_9 
REMARK    3  A    between atoms: C3_3  and  O3_10 
REMARK    4  A    between atoms: C4_4  and  O4_11 
REMARK    5  A    between atoms: C5_5  and  C6_6 
REMARK    6  A    between atoms: C6_6  and  O6_13 
REMARK    7  A    between atoms: O1_8  and  C7_7 
ROOT
ATOM      1  C1  MMA d          -4.723 -19.146  -4.549  0.00  0.00     0.158 C 
ATOM      2  C2  MMA d          -3.682 -18.053  -4.847  0.00  0.00     0.110 C 
ATOM      3  C3  MMA d          -4.020 -16.749  -4.123  0.00  0.00     0.092 C 
ATOM      4  C4  MMA d          -5.466 -16.338  -4.402  0.00  0.00     0.090 C 
ATOM      5  C5  MMA d          -6.348 -17.485  -3.920  0.00  0.00     0.089 C 
ATOM      6  O5  MMA d          -6.054 -18.646  -4.721  0.00  0.00    -0.349 OA
ATOM      7  H1  MMA d          -4.562 -20.005  -5.217  0.00  0.00     0.133 H 
ATOM      8  H2  MMA d          -2.694 -18.403  -4.515  0.00  0.00     0.094 H 
ATOM      9  H3  MMA d          -3.868 -16.877  -3.041  0.00  0.00     0.091 H 
ATOM     10  H4  MMA d          -5.609 -16.209  -5.485  0.00  0.00     0.091 H 
ATOM     11  H5  MMA d          -6.102 -17.697  -2.869  0.00  0.00     0.090 H 
ENDROOT
BRANCH   1  12
ATOM     12  O1  MMA d          -4.558 -19.540  -3.185  0.00  0.00    -0.363 OA
BRANCH  12  13
ATOM     13  C7  MMA d          -3.293 -20.200  -2.969  0.00  0.00     0.007 C 
ATOM     14  H8  MMA d          -3.012 -20.757  -3.874  0.00  0.00     0.066 H 
ATOM     15  H9  MMA d          -3.383 -20.897  -2.123  0.00  0.00     0.066 H 
ATOM     16  H10 MMA d          -2.521 -19.448  -2.746  0.00  0.00     0.066 H 
ENDBRANCH  12  13
ENDBRANCH   1  12
BRANCH   2  17
ATOM     17  O2  MMA d          -3.649 -17.795  -6.270  0.00  0.00    -0.388 OA
ATOM     18  H11 MMA d          -4.292 -18.343  -6.705  0.00  0.00     0.210 HD
ENDBRANCH   2  17
BRANCH   3  19
ATOM     19  O3  MMA d          -3.177 -15.693  -4.625  0.00  0.00    -0.390 OA
ATOM     20  H12 MMA d          -3.643 -14.866  -4.576  0.00  0.00     0.210 HD
ENDBRANCH   3  19
BRANCH   5  21
ATOM     21  C6  MMA d          -7.843 -17.168  -4.009  0.00  0.00     0.043 C 
ATOM     22  H6  MMA d          -8.415 -18.089  -4.201  0.00  0.00     0.078 H 
ATOM     23  H7  MMA d          -8.030 -16.446  -4.817  0.00  0.00     0.078 H 
BRANCH  21  24
ATOM     24  O6  MMA d          -8.227 -16.600  -2.735  0.00  0.00    -0.398 OA
ATOM     25  H14 MMA d          -7.526 -16.045  -2.413  0.00  0.00     0.209 HD
ENDBRANCH  21  24
ENDBRANCH   5  21
BRANCH   4  26
ATOM     26  O4  MMA d          -5.764 -15.079  -3.752  0.00  0.00    -0.390 OA
ATOM     27  H13 MMA d          -6.699 -15.017  -3.600  0.00  0.00     0.210 HD
ENDBRANCH   4  26
TORSDOF 7
ENDMDL
MODEL 7
REMARK VINA RESULT:      -4.6      1.854      3.433
REMARK  7 active torsions:
REMARK  status: ('A' for Active; 'I' for Inactive)
REMARK    1  A    between atoms: C1_1  and  O1_8 
REMARK    2  A    between atoms: C2_2  and  O2_9 
REMARK    3  A    between atoms: C3_3  and  O3_10 
REMARK    4  A    between atoms: C4_4  and  O4_11 
REMARK    5  A    between atoms: C5_5  and  C6_6 
REMARK    6  A    between atoms: C6_6  and  O6_13 
REMARK    7  A    between atoms: O1_8  and  C7_7 
ROOT
ATOM      1  C1  MMA d          -5.737 -15.914  -4.537  0.00  0.00     0.158 C 
ATOM      2  C2  MMA d          -4.257 -16.250  -4.289  0.00  0.00     0.110 C 
ATOM      3  C3  MMA d          -4.000 -17.753  -4.405  0.00  0.00     0.092 C 
ATOM      4  C4  MMA d          -4.981 -18.535  -3.532  0.00  0.00     0.090 C 
ATOM      5  C5  MMA d          -6.381 -18.174  -4.015  0.00  0.00     0.089 C 
ATOM      6  O5  MMA d          -6.592 -16.769  -3.771  0.00  0.00    -0.349 OA
ATOM      7  H1  MMA d          -5.931 -14.864  -4.270  0.00  0.00     0.133 H 
ATOM      8  H2  MMA d          -3.643 -15.721  -5.032  0.00  0.00     0.094 H 
ATOM      9  H3  MMA d          -4.099 -18.065  -5.456  0.00  0.00     0.091 H 
ATOM     10  H4  MMA d          -4.872 -18.220  -2.484  0.00  0.00     0.091 H 
ATOM     11  H5  MMA d          -6.439 -18.367  -5.096  0.00  0.00     0.090 H 
ENDROOT
BRANCH   1  12
ATOM     12  O1  MMA d          -6.003 -16.130  -5.925  0.00  0.00    -0.363 OA
BRANCH  12  13
ATOM     13  C7  MMA d          -7.404 -15.970  -6.231  0.00  0.00     0.007 C 
ATOM     14  H8  MMA d          -7.529 -15.155  -6.959  0.00  0.00     0.066 H 
ATOM     15  H9  MMA d          -7.955 -15.727  -5.311  0.00  0.00     0.066 H 
ATOM     16  H10 MMA d          -7.795 -16.906  -6.657  0.00  0.00     0.066 H 
ENDBRANCH  12  13
ENDBRANCH   1  12
BRANCH   2  17
ATOM     17  O2  MMA d          -3.882 -15.819  -2.960  0.00  0.00    -0.388 OA
ATOM     18  H11 MMA d          -3.753 -14.877  -2.958  0.00  0.00     0.210 HD
ENDBRANCH   2  17
BRANCH   3  19
ATOM     19  O3  MMA d          -2.675 -18.048  -3.920  0.00  0.00    -0.390 OA
ATOM     20  H12 MMA d          -2.734 -18.443  -3.057  0.00  0.00     0.210 HD
ENDBRANCH   3  19
BRANCH   5  21
ATOM     21  C6  MMA d          -7.481 -18.983  -3.323  0.00  0.00     0.043 C 
ATOM     22  H6  MMA d          -8.420 -18.410  -3.306  0.00  0.00     0.078 H 
ATOM     23  H7  MMA d          -7.181 -19.225  -2.292  0.00  0.00     0.078 H 
BRANCH  21  24
ATOM     24  O6  MMA d          -7.652 -20.198  -4.091  0.00  0.00    -0.398 OA
ATOM     25  H14 MMA d          -8.549 -20.253  -4.399  0.00  0.00     0.209 HD
ENDBRANCH  21  24
ENDBRANCH   5  21
BRANCH   4  26
ATOM     26  O4  MMA d          -4.700 -19.954  -3.611  0.00  0.00    -0.390 OA
ATOM     27  H13 MMA d          -5.352 -20.374  -4.159  0.00  0.00     0.210 HD
ENDBRANCH   4  26
TORSDOF 7
ENDMDL
MODEL 8
REMARK VINA RESULT:      -4.4      1.735      4.453
REMARK  7 active torsions:
REMARK  status: ('A' for Active; 'I' for Inactive)
REMARK    1  A    between atoms: C1_1  and  O1_8 
REMARK    2  A    between atoms: C2_2  and  O2_9 
REMARK    3  A    between atoms: C3_3  and  O3_10 
REMARK    4  A    between atoms: C4_4  and  O4_11 
REMARK    5  A    between atoms: C5_5  and  C6_6 
REMARK    6  A    between atoms: C6_6  and  O6_13 
REMARK    7  A    between atoms: O1_8  and  C7_7 
ROOT
ATOM      1  C1  MMA d          -6.116 -16.563  -4.079  0.00  0.00     0.158 C 
ATOM      2  C2  MMA d          -6.717 -17.171  -5.359  0.00  0.00     0.110 C 
ATOM      3  C3  MMA d          -6.265 -18.620  -5.552  0.00  0.00     0.092 C 
ATOM      4  C4  MMA d          -4.743 -18.725  -5.456  0.00  0.00     0.090 C 
ATOM      5  C5  MMA d          -4.354 -18.204  -4.077  0.00  0.00     0.089 C 
ATOM      6  O5  MMA d          -4.707 -16.808  -4.009  0.00  0.00    -0.349 OA
ATOM      7  H1  MMA d          -6.304 -15.479  -4.058  0.00  0.00     0.133 H 
ATOM      8  H2  MMA d          -7.814 -17.143  -5.284  0.00  0.00     0.094 H 
ATOM      9  H3  MMA d          -6.736 -19.259  -4.790  0.00  0.00     0.091 H 
ATOM     10  H4  MMA d          -4.281 -18.087  -6.223  0.00  0.00     0.091 H 
ATOM     11  H5  MMA d          -4.924 -18.760  -3.319  0.00  0.00     0.090 H 
ENDROOT
BRANCH   1  12
ATOM     12  O1  MMA d          -6.744 -17.197  -2.963  0.00  0.00    -0.363 OA
BRANCH  12  13
ATOM     13  C7  MMA d          -8.178 -17.043  -2.999  0.00  0.00     0.007 C 
ATOM     14  H8  MMA d          -8.466 -16.499  -3.910  0.00  0.00     0.066 H 
ATOM     15  H9  MMA d          -8.509 -16.478  -2.115  0.00  0.00     0.066 H 
ATOM     16  H10 MMA d          -8.654 -18.036  -3.000  0.00  0.00     0.066 H 
ENDBRANCH  12  13
ENDBRANCH   1  12
BRANCH   2  17
ATOM     17  O2  MMA d          -6.291 -16.398  -6.504  0.00  0.00    -0.388 OA
ATOM     18  H11 MMA d          -5.394 -16.111  -6.377  0.00  0.00     0.210 HD
ENDBRANCH   2  17
BRANCH   3  19
ATOM     19  O3  MMA d          -6.636 -19.061  -6.873  0.00  0.00    -0.390 OA
ATOM     20  H12 MMA d          -6.495 -19.998  -6.945  0.00  0.00     0.210 HD
ENDBRANCH   3  19
BRANCH   5  21
ATOM     21  C6  MMA d          -2.862 -18.368  -3.773  0.00  0.00     0.043 C 
ATOM     22  H6  MMA d          -2.311 -18.599  -4.697  0.00  0.00     0.078 H 
ATOM     23  H7  MMA d          -2.711 -19.178  -3.045  0.00  0.00     0.078 H 
BRANCH  21  24
ATOM     24  O6  MMA d          -2.407 -17.110  -3.222  0.00  0.00    -0.398 OA
ATOM     25  H14 MMA d          -1.929 -16.628  -3.888  0.00  0.00     0.209 HD
ENDBRANCH  21  24
ENDBRANCH   5  21
BRANCH   4  26
ATOM     26  O4  MMA d          -4.320 -20.090  -5.688  0.00  0.00    -0.390 OA
ATOM     27  H13 MMA d          -3.378 -20.150  -5.585  0.00  0.00     0.210 HD
ENDBRANCH   4  26
TORSDOF 7
ENDMDL
MODEL 9
REMARK VINA RESULT:      -3.9      2.109      3.749
REMARK  7 active torsions:
REMARK  status: ('A' for Active; 'I' for Inactive)
REMARK    1  A    between atoms: C1_1  and  O1_8 
REMARK    2  A    between atoms: C2_2  and  O2_9 
REMARK    3  A    between atoms: C3_3  and  O3_10 
REMARK    4  A    between atoms: C4_4  and  O4_11 
REMARK    5  A    between atoms: C5_5  and  C6_6 
REMARK    6  A    between atoms: C6_6  and  O6_13 
REMARK    7  A    between atoms: O1_8  and  C7_7 
ROOT
ATOM      1  C1  MMA d          -6.811 -19.408  -4.810  0.00  0.00     0.158 C 
ATOM      2  C2  MMA d          -5.717 -19.833  -5.805  0.00  0.00     0.110 C 
ATOM      3  C3  MMA d          -4.364 -19.221  -5.439  0.00  0.00     0.092 C 
ATOM      4  C4  MMA d          -4.491 -17.710  -5.247  0.00  0.00     0.090 C 
ATOM      5  C5  MMA d          -5.514 -17.494  -4.138  0.00  0.00     0.089 C 
ATOM      6  O5  MMA d          -6.787 -17.993  -4.596  0.00  0.00    -0.349 OA
ATOM      7  H1  MMA d          -7.799 -19.707  -5.193  0.00  0.00     0.133 H 
ATOM      8  H2  MMA d          -5.632 -20.930  -5.791  0.00  0.00     0.094 H 
ATOM      9  H3  MMA d          -3.984 -19.687  -4.517  0.00  0.00     0.091 H 
ATOM     10  H4  MMA d          -4.868 -17.253  -6.174  0.00  0.00     0.091 H 
ATOM     11  H5  MMA d          -5.198 -18.067  -3.254  0.00  0.00     0.090 H 
ENDROOT
BRANCH   1  12
ATOM     12  O1  MMA d          -6.543 -20.060  -3.567  0.00  0.00    -0.363 OA
BRANCH  12  13
ATOM     13  C7  MMA d          -7.719 -20.128  -2.735  0.00  0.00     0.007 C 
ATOM     14  H8  MMA d          -7.511 -20.753  -1.855  0.00  0.00     0.066 H 
ATOM     15  H9  MMA d          -8.549 -20.567  -3.308  0.00  0.00     0.066 H 
ATOM     16  H10 MMA d          -7.996 -19.114  -2.407  0.00  0.00     0.066 H 
ENDBRANCH  12  13
ENDBRANCH   1  12
BRANCH   2  17
ATOM     17  O2  MMA d          -6.079 -19.394  -7.134  0.00  0.00    -0.388 OA
ATOM     18  H11 MMA d          -6.468 -20.118  -7.611  0.00  0.00     0.210 HD
ENDBRANCH   2  17
BRANCH   3  19
ATOM     19  O3  MMA d          -3.438 -19.433  -6.523  0.00  0.00    -0.390 OA
ATOM     20  H12 MMA d          -2.879 -18.669  -6.616  0.00  0.00     0.210 HD
ENDBRANCH   3  19
BRANCH   5  21
ATOM     21  C6  MMA d          -5.658 -16.025  -3.733  0.00  0.00     0.043 C 
ATOM     22  H6  MMA d          -6.533 -15.895  -3.079  0.00  0.00     0.078 H 
ATOM     23  H7  MMA d          -5.773 -15.395  -4.627  0.00  0.00     0.078 H 
BRANCH  21  24
ATOM     24  O6  MMA d          -4.448 -15.667  -3.024  0.00  0.00    -0.398 OA
ATOM     25  H14 MMA d          -4.088 -14.870  -3.396  0.00  0.00     0.209 HD
ENDBRANCH  21  24
ENDBRANCH   5  21
BRANCH   4  26
ATOM     26  O4  MMA d          -3.198 -17.132  -4.949  0.00  0.00    -0.390 OA
ATOM     27  H13 MMA d          -3.292 -16.194  -4.831  0.00  0.00     0.210 HD
ENDBRANCH   4  26
TORSDOF 7
ENDMDL
MODEL 10
REMARK VINA RESULT:      -3.4      1.964      3.730
REMARK  7 active torsions:
REMARK  status: ('A' for Active; 'I' for Inactive)
REMARK    1  A    between atoms: C1_1  and  O1_8 
REMARK    2  A    between atoms: C2_2  and  O2_9 
REMARK    3  A    between atoms: C3_3  and  O3_10 
REMARK    4  A    between atoms: C4_4  and  O4_11 
REMARK    5  A    between atoms: C5_5  and  C6_6 
REMARK    6  A    between atoms: C6_6  and  O6_13 
REMARK    7  A    between atoms: O1_8  and  C7_7 
ROOT
ATOM      1  C1  MMA d          -5.817 -18.971  -3.256  0.00  0.00     0.158 C 
ATOM      2  C2  MMA d          -6.152 -19.693  -4.572  0.00  0.00     0.110 C 
ATOM      3  C3  MMA d          -5.802 -18.830  -5.786  0.00  0.00     0.092 C 
ATOM      4  C4  MMA d          -6.420 -17.439  -5.652  0.00  0.00     0.090 C 
ATOM      5  C5  MMA d          -5.868 -16.835  -4.366  0.00  0.00     0.089 C 
ATOM      6  O5  MMA d          -6.331 -17.635  -3.259  0.00  0.00    -0.349 OA
ATOM      7  H1  MMA d          -6.241 -19.528  -2.407  0.00  0.00     0.133 H 
ATOM      8  H2  MMA d          -5.578 -20.631  -4.620  0.00  0.00     0.094 H 
ATOM      9  H3  MMA d          -4.709 -18.749  -5.878  0.00  0.00     0.091 H 
ATOM     10  H4  MMA d          -7.513 -17.529  -5.564  0.00  0.00     0.091 H 
ATOM     11  H5  MMA d          -4.770 -16.872  -4.406  0.00  0.00     0.090 H 
ENDROOT
BRANCH   1  12
ATOM     12  O1  MMA d          -4.392 -18.910  -3.147  0.00  0.00    -0.363 OA
BRANCH  12  13
ATOM     13  C7  MMA d          -3.826 -20.199  -2.834  0.00  0.00     0.007 C 
ATOM     14  H8  MMA d          -3.873 -20.367  -1.749  0.00  0.00     0.066 H 
ATOM     15  H9  MMA d          -2.776 -20.228  -3.163  0.00  0.00     0.066 H 
ATOM     16  H10 MMA d          -4.395 -20.986  -3.352  0.00  0.00     0.066 H 
ENDBRANCH  12  13
ENDBRANCH   1  12
BRANCH   2  17
ATOM     17  O2  MMA d          -7.567 -19.991  -4.610  0.00  0.00    -0.388 OA
ATOM     18  H11 MMA d          -7.985 -19.452  -5.271  0.00  0.00     0.210 HD
ENDBRANCH   2  17
BRANCH   3  19
ATOM     19  O3  MMA d          -6.361 -19.429  -6.972  0.00  0.00    -0.390 OA
ATOM     20  H12 MMA d          -6.745 -20.270  -6.751  0.00  0.00     0.210 HD
ENDBRANCH   3  19
BRANCH   5  21
ATOM     21  C6  MMA d          -6.293 -15.380  -4.156  0.00  0.00     0.043 C 
ATOM     22  H6  MMA d          -7.324 -15.231  -4.511  0.00  0.00     0.078 H 
ATOM     23  H7  MMA d          -5.617 -14.705  -4.703  0.00  0.00     0.078 H 
BRANCH  21  24
ATOM     24  O6  MMA d          -6.213 -15.122  -2.735  0.00  0.00    -0.398 OA
ATOM     25  H14 MMA d          -7.090 -15.039  -2.379  0.00  0.00     0.209 HD
ENDBRANCH  21  24
ENDBRANCH   5  21
BRANCH   4  26
ATOM     26  O4  MMA d          -6.125 -16.645  -6.826  0.00  0.00    -0.390 OA
ATOM     27  H13 MMA d          -6.611 -15.829  -6.786  0.00  0.00     0.210 HD
ENDBRANCH   4  26
TORSDOF 7
ENDMDL
