REMARK  6 active torsions:
REMARK  status: ('A' for Active; 'I' for Inactive)
REMARK    1  A    between atoms: C1_17  and  N1_1 
REMARK    2  A    between atoms: C5_10  and  O5_9 
REMARK    3  A    between atoms: C4_11  and  C5_10 
REMARK    4  A    between atoms: C3_13  and  O3_14 
REMARK    5  A    between atoms: O3_14  and  P_19 
REMARK    6  A    between atoms: C2_15  and  O2_16 
ROOT
ATOM      1  C4  UA3 d          38.937   0.320  12.285  0.00  0.00     0.089 C 
ATOM      2  O4  UA3 d          38.734  -0.959  11.693  0.00  0.00    -0.353 OA
ATOM      3  C3  UA3 d          38.033   1.171  12.879  0.00  0.00     0.107 C 
ATOM      4  C2  UA3 d          36.882  -0.127  13.065  0.00  0.00     0.106 C 
ATOM      5  C1  UA3 d          37.181  -0.862  11.577  0.00  0.00     0.141 C 
ATOM      6  H7  UA3 d          38.877   0.844  11.320  0.00  0.00     0.090 H 
ATOM      7  H8  UA3 d          38.472   1.466  13.843  0.00  0.00     0.092 H 
ATOM      8  H9  UA3 d          35.849   0.251  13.046  0.00  0.00     0.093 H 
ATOM      9  H11 UA3 d          36.851  -0.299  10.691  0.00  0.00     0.123 H 
ENDROOT
BRANCH   5  10
ATOM     10  N1  UA3 d          36.503  -2.084  11.711  0.00  0.00    -0.280 N 
ATOM     11  C2  UA3 d          35.210  -2.157  11.115  0.00  0.00     0.331 A 
ATOM     12  O2  UA3 d          34.738  -1.253  10.524  0.00  0.00    -0.246 OA
ATOM     13  N3  UA3 d          34.584  -3.397  11.305  0.00  0.00    -0.275 N 
ATOM     14  C4  UA3 d          35.079  -4.524  11.999  0.00  0.00     0.250 A 
ATOM     15  H1  UA3 d          33.675  -3.496  10.899  0.00  0.00     0.173 HD
ATOM     16  O4  UA3 d          34.381  -5.512  12.054  0.00  0.00    -0.268 OA
ATOM     17  C5  UA3 d          36.401  -4.353  12.579  0.00  0.00    -0.002 A 
ATOM     18  C6  UA3 d          37.056  -3.188  12.429  0.00  0.00    -0.008 A 
ATOM     19  H2  UA3 d          36.861  -5.168  13.135  0.00  0.00     0.094 H 
ATOM     20  H3  UA3 d          38.045  -3.082  12.872  0.00  0.00     0.112 H 
ENDBRANCH   5  10
BRANCH   4  21
ATOM     21  O2  UA3 d          37.063  -0.815  14.546  0.00  0.00    -0.388 OA
ATOM     22  H10 UA3 d          36.435  -1.521  14.645  0.00  0.00     0.210 HD
ENDBRANCH   4  21
BRANCH   1  23
ATOM     23  C5  UA3 d          40.223   0.596  12.517  0.00  0.00     0.043 C 
ATOM     24  H5  UA3 d          40.820  -0.013  11.822  0.00  0.00     0.078 H 
ATOM     25  H6  UA3 d          40.375   1.662  12.294  0.00  0.00     0.078 H 
BRANCH  23  26
ATOM     26  O5  UA3 d          40.777   0.336  13.964  0.00  0.00    -0.398 OA
ATOM     27  H4  UA3 d          41.697   0.571  13.997  0.00  0.00     0.209 HD
ENDBRANCH  23  26
ENDBRANCH   1  23
BRANCH   3  28
ATOM     28  O3  UA3 d          37.313   2.450  12.414  0.00  0.00    -0.272 OA
BRANCH  28  29
ATOM     29  P   UA3 d          36.674   3.571  13.193  0.00  0.00     0.422 P 
ATOM     30  O3P UA3 d          35.124   3.180  13.313  0.00  0.00    -0.617 OA
ATOM     31  O1P UA3 d          36.906   4.864  12.468  0.00  0.00    -0.617 OA
ATOM     32  O2P UA3 d          37.269   3.614  14.575  0.00  0.00    -0.617 OA
ENDBRANCH  28  29
ENDBRANCH   3  28
TORSDOF 6
