MODEL 1
REMARK VINA RESULT:      -5.3      0.000      0.000
REMARK  6 active torsions:
REMARK  status: ('A' for Active; 'I' for Inactive)
REMARK    1  A    between atoms: C1_17  and  N1_1 
REMARK    2  A    between atoms: C5_10  and  O5_9 
REMARK    3  A    between atoms: C4_11  and  C5_10 
REMARK    4  A    between atoms: C3_13  and  O3_14 
REMARK    5  A    between atoms: O3_14  and  P_19 
REMARK    6  A    between atoms: C2_15  and  O2_16 
ROOT
ATOM      1  C4  UA3 d          39.601  -1.185  12.771  0.00  0.00     0.089 C 
ATOM      2  O4  UA3 d          39.220  -2.452  12.245  0.00  0.00    -0.353 OA
ATOM      3  C3  UA3 d          38.831  -0.082  13.062  0.00  0.00     0.107 C 
ATOM      4  C2  UA3 d          37.381  -1.052  13.059  0.00  0.00     0.106 C 
ATOM      5  C1  UA3 d          37.804  -2.025  11.748  0.00  0.00     0.141 C 
ATOM      6  H7  UA3 d          39.886  -0.793  11.784  0.00  0.00     0.090 H 
ATOM      7  H8  UA3 d          39.109   0.231  14.079  0.00  0.00     0.092 H 
ATOM      8  H9  UA3 d          36.505  -0.457  12.760  0.00  0.00     0.093 H 
ATOM      9  H11 UA3 d          37.827  -1.524  10.768  0.00  0.00     0.123 H 
ENDROOT
BRANCH   5  10
ATOM     10  N1  UA3 d          36.830  -3.034  11.804  0.00  0.00    -0.280 N 
ATOM     11  C2  UA3 d          35.601  -2.764  11.135  0.00  0.00     0.331 A 
ATOM     12  O2  UA3 d          35.412  -1.759  10.548  0.00  0.00    -0.246 OA
ATOM     13  N3  UA3 d          34.669  -3.805  11.249  0.00  0.00    -0.275 N 
ATOM     14  C4  UA3 d          34.817  -5.033  11.933  0.00  0.00     0.250 A 
ATOM     15  H1  UA3 d          33.792  -3.661  10.790  0.00  0.00     0.173 HD
ATOM     16  O4  UA3 d          33.888  -5.810  11.917  0.00  0.00    -0.268 OA
ATOM     17  C5  UA3 d          36.100  -5.216  12.591  0.00  0.00    -0.002 A 
ATOM     18  C6  UA3 d          37.038  -4.255  12.515  0.00  0.00    -0.008 A 
ATOM     19  H2  UA3 d          36.302  -6.131  13.145  0.00  0.00     0.094 H 
ATOM     20  H3  UA3 d          37.992  -4.414  13.016  0.00  0.00     0.112 H 
ENDBRANCH   5  10
BRANCH   4  21
ATOM     21  O2  UA3 d          37.057  -1.562  14.586  0.00  0.00    -0.388 OA
ATOM     22  H10 UA3 d          36.123  -1.499  14.749  0.00  0.00     0.210 HD
ENDBRANCH   4  21
BRANCH   1  23
ATOM     23  C5  UA3 d          40.833  -1.178  13.288  0.00  0.00     0.043 C 
ATOM     24  H5  UA3 d          41.046  -2.197  13.643  0.00  0.00     0.078 H 
ATOM     25  H6  UA3 d          41.528  -0.919  12.476  0.00  0.00     0.078 H 
BRANCH  23  26
ATOM     26  O5  UA3 d          41.119  -0.195  14.480  0.00  0.00    -0.398 OA
ATOM     27  H4  UA3 d          40.342   0.321  14.658  0.00  0.00     0.209 HD
ENDBRANCH  23  26
ENDBRANCH   1  23
BRANCH   3  28
ATOM     28  O3  UA3 d          38.572   1.253  12.341  0.00  0.00    -0.272 OA
BRANCH  28  29
ATOM     29  P   UA3 d          38.555   2.672  12.850  0.00  0.00     0.422 P 
ATOM     30  O3P UA3 d          37.093   3.233  12.506  0.00  0.00    -0.617 OA
ATOM     31  O1P UA3 d          39.659   3.442  12.188  0.00  0.00    -0.617 OA
ATOM     32  O2P UA3 d          38.727   2.662  14.346  0.00  0.00    -0.617 OA
ENDBRANCH  28  29
ENDBRANCH   3  28
TORSDOF 6
ENDMDL
MODEL 2
REMARK VINA RESULT:      -5.1      3.126      6.012
REMARK  6 active torsions:
REMARK  status: ('A' for Active; 'I' for Inactive)
REMARK    1  A    between atoms: C1_17  and  N1_1 
REMARK    2  A    between atoms: C5_10  and  O5_9 
REMARK    3  A    between atoms: C4_11  and  C5_10 
REMARK    4  A    between atoms: C3_13  and  O3_14 
REMARK    5  A    between atoms: O3_14  and  P_19 
REMARK    6  A    between atoms: C2_15  and  O2_16 
ROOT
ATOM      1  C4  UA3 d          39.124  -2.704  13.842  0.00  0.00     0.089 C 
ATOM      2  O4  UA3 d          38.919  -1.431  14.446  0.00  0.00    -0.353 OA
ATOM      3  C3  UA3 d          38.650  -3.201  12.650  0.00  0.00     0.107 C 
ATOM      4  C2  UA3 d          38.281  -1.592  12.086  0.00  0.00     0.106 C 
ATOM      5  C1  UA3 d          37.711  -1.000  13.558  0.00  0.00     0.141 C 
ATOM      6  H7  UA3 d          38.318  -3.177  14.421  0.00  0.00     0.090 H 
ATOM      7  H8  UA3 d          39.517  -3.627  12.124  0.00  0.00     0.092 H 
ATOM      8  H9  UA3 d          37.435  -1.601  11.382  0.00  0.00     0.093 H 
ATOM      9  H11 UA3 d          36.753  -1.419  13.903  0.00  0.00     0.123 H 
ENDROOT
BRANCH   5  10
ATOM     10  N1  UA3 d          37.626   0.379  13.308  0.00  0.00    -0.280 N 
ATOM     11  C2  UA3 d          36.475   0.821  12.592  0.00  0.00     0.331 A 
ATOM     12  O2  UA3 d          35.627   0.079  12.245  0.00  0.00    -0.246 OA
ATOM     13  N3  UA3 d          36.466   2.204  12.361  0.00  0.00    -0.275 N 
ATOM     14  C4  UA3 d          37.439   3.155  12.741  0.00  0.00     0.250 A 
ATOM     15  H1  UA3 d          35.673   2.560  11.865  0.00  0.00     0.173 HD
ATOM     16  O4  UA3 d          37.250   4.314  12.445  0.00  0.00    -0.268 OA
ATOM     17  C5  UA3 d          38.580   2.611  13.458  0.00  0.00    -0.002 A 
ATOM     18  C6  UA3 d          38.646   1.292  13.715  0.00  0.00    -0.008 A 
ATOM     19  H2  UA3 d          39.381   3.270  13.788  0.00  0.00     0.094 H 
ATOM     20  H3  UA3 d          39.510   0.906  14.254  0.00  0.00     0.112 H 
ENDBRANCH   5  10
BRANCH   4  21
ATOM     21  O2  UA3 d          39.552  -1.005  11.225  0.00  0.00    -0.388 OA
ATOM     22  H10 UA3 d          39.293  -0.203  10.787  0.00  0.00     0.210 HD
ENDBRANCH   4  21
BRANCH   1  23
ATOM     23  C5  UA3 d          40.123  -3.396  14.396  0.00  0.00     0.043 C 
ATOM     24  H5  UA3 d          41.059  -3.050  13.933  0.00  0.00     0.078 H 
ATOM     25  H6  UA3 d          40.133  -3.155  15.469  0.00  0.00     0.078 H 
BRANCH  23  26
ATOM     26  O5  UA3 d          40.086  -4.961  14.267  0.00  0.00    -0.398 OA
ATOM     27  H4  UA3 d          40.931  -5.319  14.516  0.00  0.00     0.209 HD
ENDBRANCH  23  26
ENDBRANCH   1  23
BRANCH   3  28
ATOM     28  O3  UA3 d          37.506  -4.164  12.279  0.00  0.00    -0.272 OA
BRANCH  28  29
ATOM     29  P   UA3 d          36.416  -4.782  13.116  0.00  0.00     0.422 P 
ATOM     30  O3P UA3 d          35.406  -3.585  13.457  0.00  0.00    -0.617 OA
ATOM     31  O1P UA3 d          37.030  -5.406  14.335  0.00  0.00    -0.617 OA
ATOM     32  O2P UA3 d          35.685  -5.810  12.295  0.00  0.00    -0.617 OA
ENDBRANCH  28  29
ENDBRANCH   3  28
TORSDOF 6
ENDMDL
MODEL 3
REMARK VINA RESULT:      -5.0      3.028      6.294
REMARK  6 active torsions:
REMARK  status: ('A' for Active; 'I' for Inactive)
REMARK    1  A    between atoms: C1_17  and  N1_1 
REMARK    2  A    between atoms: C5_10  and  O5_9 
REMARK    3  A    between atoms: C4_11  and  C5_10 
REMARK    4  A    between atoms: C3_13  and  O3_14 
REMARK    5  A    between atoms: O3_14  and  P_19 
REMARK    6  A    between atoms: C2_15  and  O2_16 
ROOT
ATOM      1  C4  UA3 d          38.132  -2.467  13.683  0.00  0.00     0.089 C 
ATOM      2  O4  UA3 d          38.225  -1.323  14.526  0.00  0.00    -0.353 OA
ATOM      3  C3  UA3 d          38.045  -2.548  12.312  0.00  0.00     0.107 C 
ATOM      4  C2  UA3 d          38.631  -0.913  12.144  0.00  0.00     0.106 C 
ATOM      5  C1  UA3 d          37.789  -0.273  13.457  0.00  0.00     0.141 C 
ATOM      6  H7  UA3 d          37.042  -2.547  13.810  0.00  0.00     0.090 H 
ATOM      7  H8  UA3 d          38.799  -3.284  11.997  0.00  0.00     0.092 H 
ATOM      8  H9  UA3 d          38.235  -0.439  11.234  0.00  0.00     0.093 H 
ATOM      9  H11 UA3 d          36.697  -0.209  13.339  0.00  0.00     0.123 H 
ENDROOT
BRANCH   5  10
ATOM     10  N1  UA3 d          38.381   0.992  13.598  0.00  0.00    -0.280 N 
ATOM     11  C2  UA3 d          37.831   2.039  12.803  0.00  0.00     0.331 A 
ATOM     12  O2  UA3 d          36.916   1.865  12.080  0.00  0.00    -0.246 OA
ATOM     13  N3  UA3 d          38.483   3.268  12.979  0.00  0.00    -0.275 N 
ATOM     14  C4  UA3 d          39.581   3.557  13.820  0.00  0.00     0.250 A 
ATOM     15  H1  UA3 d          38.127   4.034  12.444  0.00  0.00     0.173 HD
ATOM     16  O4  UA3 d          40.008   4.690  13.833  0.00  0.00    -0.268 OA
ATOM     17  C5  UA3 d          40.079   2.426  14.586  0.00  0.00    -0.002 A 
ATOM     18  C6  UA3 d          39.494   1.221  14.464  0.00  0.00    -0.008 A 
ATOM     19  H2  UA3 d          40.926   2.554  15.258  0.00  0.00     0.094 H 
ATOM     20  H3  UA3 d          39.883   0.388  15.048  0.00  0.00     0.112 H 
ENDBRANCH   5  10
BRANCH   4  21
ATOM     21  O2  UA3 d          40.262  -0.930  11.947  0.00  0.00    -0.388 OA
ATOM     22  H10 UA3 d          40.468  -1.068  11.030  0.00  0.00     0.210 HD
ENDBRANCH   4  21
BRANCH   1  23
ATOM     23  C5  UA3 d          38.432  -3.608  14.308  0.00  0.00     0.043 C 
ATOM     24  H5  UA3 d          39.265  -4.073  13.760  0.00  0.00     0.078 H 
ATOM     25  H6  UA3 d          38.761  -3.349  15.325  0.00  0.00     0.078 H 
BRANCH  23  26
ATOM     26  O5  UA3 d          37.299  -4.688  14.443  0.00  0.00    -0.398 OA
ATOM     27  H4  UA3 d          36.847  -4.570  15.270  0.00  0.00     0.209 HD
ENDBRANCH  23  26
ENDBRANCH   1  23
BRANCH   3  28
ATOM     28  O3  UA3 d          36.883  -2.793  11.333  0.00  0.00    -0.272 OA
BRANCH  28  29
ATOM     29  P   UA3 d          35.409  -2.999  11.571  0.00  0.00     0.422 P 
ATOM     30  O3P UA3 d          35.096  -4.487  11.062  0.00  0.00    -0.617 OA
ATOM     31  O1P UA3 d          34.642  -1.944  10.829  0.00  0.00    -0.617 OA
ATOM     32  O2P UA3 d          35.132  -2.927  13.049  0.00  0.00    -0.617 OA
ENDBRANCH  28  29
ENDBRANCH   3  28
TORSDOF 6
ENDMDL
MODEL 4
REMARK VINA RESULT:      -4.9      3.115      6.581
REMARK  6 active torsions:
REMARK  status: ('A' for Active; 'I' for Inactive)
REMARK    1  A    between atoms: C1_17  and  N1_1 
REMARK    2  A    between atoms: C5_10  and  O5_9 
REMARK    3  A    between atoms: C4_11  and  C5_10 
REMARK    4  A    between atoms: C3_13  and  O3_14 
REMARK    5  A    between atoms: O3_14  and  P_19 
REMARK    6  A    between atoms: C2_15  and  O2_16 
ROOT
ATOM      1  C4  UA3 d          36.837  -2.046  11.437  0.00  0.00     0.089 C 
ATOM      2  O4  UA3 d          36.678  -0.652  11.191  0.00  0.00    -0.353 OA
ATOM      3  C3  UA3 d          37.712  -2.700  12.274  0.00  0.00     0.107 C 
ATOM      4  C2  UA3 d          38.018  -1.228  13.160  0.00  0.00     0.106 C 
ATOM      5  C1  UA3 d          38.030  -0.199  11.823  0.00  0.00     0.141 C 
ATOM      6  H7  UA3 d          37.485  -2.189  10.560  0.00  0.00     0.090 H 
ATOM      7  H8  UA3 d          37.110  -3.409  12.860  0.00  0.00     0.092 H 
ATOM      8  H9  UA3 d          39.030  -1.224  13.590  0.00  0.00     0.093 H 
ATOM      9  H11 UA3 d          38.884  -0.315  11.139  0.00  0.00     0.123 H 
ENDROOT
BRANCH   5  10
ATOM     10  N1  UA3 d          38.003   1.068  12.427  0.00  0.00    -0.280 N 
ATOM     11  C2  UA3 d          39.267   1.638  12.755  0.00  0.00     0.331 A 
ATOM     12  O2  UA3 d          40.284   1.092  12.518  0.00  0.00    -0.246 OA
ATOM     13  N3  UA3 d          39.163   2.893  13.372  0.00  0.00    -0.275 N 
ATOM     14  C4  UA3 d          37.989   3.611  13.691  0.00  0.00     0.250 A 
ATOM     15  H1  UA3 d          40.027   3.334  13.616  0.00  0.00     0.173 HD
ATOM     16  O4  UA3 d          38.108   4.689  14.229  0.00  0.00    -0.268 OA
ATOM     17  C5  UA3 d          36.748   2.946  13.327  0.00  0.00    -0.002 A 
ATOM     18  C6  UA3 d          36.780   1.742  12.728  0.00  0.00    -0.008 A 
ATOM     19  H2  UA3 d          35.793   3.424  13.538  0.00  0.00     0.094 H 
ATOM     20  H3  UA3 d          35.839   1.263  12.464  0.00  0.00     0.112 H 
ENDBRANCH   5  10
BRANCH   4  21
ATOM     21  O2  UA3 d          37.001  -1.140  14.448  0.00  0.00    -0.388 OA
ATOM     22  H10 UA3 d          37.495  -1.270  15.249  0.00  0.00     0.210 HD
ENDBRANCH   4  21
BRANCH   1  23
ATOM     23  C5  UA3 d          35.819  -2.782  10.984  0.00  0.00     0.043 C 
ATOM     24  H5  UA3 d          36.139  -3.235  10.034  0.00  0.00     0.078 H 
ATOM     25  H6  UA3 d          35.631  -3.573  11.723  0.00  0.00     0.078 H 
BRANCH  23  26
ATOM     26  O5  UA3 d          34.452  -2.054  10.719  0.00  0.00    -0.398 OA
ATOM     27  H4  UA3 d          33.906  -2.115  11.495  0.00  0.00     0.209 HD
ENDBRANCH  23  26
ENDBRANCH   1  23
BRANCH   3  28
ATOM     28  O3  UA3 d          39.032  -3.460  12.048  0.00  0.00    -0.272 OA
BRANCH  28  29
ATOM     29  P   UA3 d          39.568  -4.727  12.664  0.00  0.00     0.422 P 
ATOM     30  O3P UA3 d          39.802  -4.385  14.212  0.00  0.00    -0.617 OA
ATOM     31  O1P UA3 d          40.824  -5.126  11.946  0.00  0.00    -0.617 OA
ATOM     32  O2P UA3 d          38.523  -5.807  12.561  0.00  0.00    -0.617 OA
ENDBRANCH  28  29
ENDBRANCH   3  28
TORSDOF 6
ENDMDL
MODEL 5
REMARK VINA RESULT:      -4.5      2.002      3.611
REMARK  6 active torsions:
REMARK  status: ('A' for Active; 'I' for Inactive)
REMARK    1  A    between atoms: C1_17  and  N1_1 
REMARK    2  A    between atoms: C5_10  and  O5_9 
REMARK    3  A    between atoms: C4_11  and  C5_10 
REMARK    4  A    between atoms: C3_13  and  O3_14 
REMARK    5  A    between atoms: O3_14  and  P_19 
REMARK    6  A    between atoms: C2_15  and  O2_16 
ROOT
ATOM      1  C4  UA3 d          36.884   1.905  13.034  0.00  0.00     0.089 C 
ATOM      2  O4  UA3 d          35.815   0.964  13.009  0.00  0.00    -0.353 OA
ATOM      3  C3  UA3 d          38.244   1.697  12.992  0.00  0.00     0.107 C 
ATOM      4  C2  UA3 d          38.012   0.080  12.378  0.00  0.00     0.106 C 
ATOM      5  C1  UA3 d          36.674  -0.297  13.334  0.00  0.00     0.141 C 
ATOM      6  H7  UA3 d          36.875   1.978  14.132  0.00  0.00     0.090 H 
ATOM      7  H8  UA3 d          38.637   2.372  12.220  0.00  0.00     0.092 H 
ATOM      8  H9  UA3 d          38.834  -0.584  12.682  0.00  0.00     0.093 H 
ATOM      9  H11 UA3 d          36.874  -0.416  14.409  0.00  0.00     0.123 H 
ENDROOT
BRANCH   5  10
ATOM     10  N1  UA3 d          36.219  -1.487  12.745  0.00  0.00    -0.280 N 
ATOM     11  C2  UA3 d          36.567  -2.696  13.415  0.00  0.00     0.331 A 
ATOM     12  O2  UA3 d          37.186  -2.704  14.418  0.00  0.00    -0.246 OA
ATOM     13  N3  UA3 d          36.097  -3.845  12.762  0.00  0.00    -0.275 N 
ATOM     14  C4  UA3 d          35.354  -3.920  11.562  0.00  0.00     0.250 A 
ATOM     15  H1  UA3 d          36.314  -4.718  13.199  0.00  0.00     0.173 HD
ATOM     16  O4  UA3 d          35.040  -5.016  11.154  0.00  0.00    -0.268 OA
ATOM     17  C5  UA3 d          35.053  -2.637  10.947  0.00  0.00    -0.002 A 
ATOM     18  C6  UA3 d          35.473  -1.499  11.527  0.00  0.00    -0.008 A 
ATOM     19  H2  UA3 d          34.488  -2.599  10.018  0.00  0.00     0.094 H 
ATOM     20  H3  UA3 d          35.236  -0.549  11.049  0.00  0.00     0.112 H 
ENDBRANCH   5  10
BRANCH   4  21
ATOM     21  O2  UA3 d          38.061   0.103  10.736  0.00  0.00    -0.388 OA
ATOM     22  H10 UA3 d          37.235   0.432  10.400  0.00  0.00     0.210 HD
ENDBRANCH   4  21
BRANCH   1  23
ATOM     23  C5  UA3 d          36.488   3.160  12.805  0.00  0.00     0.043 C 
ATOM     24  H5  UA3 d          37.338   3.819  13.036  0.00  0.00     0.078 H 
ATOM     25  H6  UA3 d          36.245   3.236  11.735  0.00  0.00     0.078 H 
BRANCH  23  26
ATOM     26  O5  UA3 d          35.247   3.693  13.607  0.00  0.00    -0.398 OA
ATOM     27  H4  UA3 d          34.879   2.987  14.125  0.00  0.00     0.209 HD
ENDBRANCH  23  26
ENDBRANCH   1  23
BRANCH   3  28
ATOM     28  O3  UA3 d          39.353   1.699  14.060  0.00  0.00    -0.272 OA
BRANCH  28  29
ATOM     29  P   UA3 d          40.855   1.700  13.934  0.00  0.00     0.422 P 
ATOM     30  O3P UA3 d          41.153   1.772  12.361  0.00  0.00    -0.617 OA
ATOM     31  O1P UA3 d          41.401   0.464  14.586  0.00  0.00    -0.617 OA
ATOM     32  O2P UA3 d          41.404   2.941  14.586  0.00  0.00    -0.617 OA
ENDBRANCH  28  29
ENDBRANCH   3  28
TORSDOF 6
ENDMDL
MODEL 6
REMARK VINA RESULT:      -4.4      3.223      6.905
REMARK  6 active torsions:
REMARK  status: ('A' for Active; 'I' for Inactive)
REMARK    1  A    between atoms: C1_17  and  N1_1 
REMARK    2  A    between atoms: C5_10  and  O5_9 
REMARK    3  A    between atoms: C4_11  and  C5_10 
REMARK    4  A    between atoms: C3_13  and  O3_14 
REMARK    5  A    between atoms: O3_14  and  P_19 
REMARK    6  A    between atoms: C2_15  and  O2_16 
ROOT
ATOM      1  C4  UA3 d          36.754  -0.670  11.548  0.00  0.00     0.089 C 
ATOM      2  O4  UA3 d          37.806   0.215  11.178  0.00  0.00    -0.353 OA
ATOM      3  C3  UA3 d          36.407  -1.158  12.787  0.00  0.00     0.107 C 
ATOM      4  C2  UA3 d          37.322   0.100  13.577  0.00  0.00     0.106 C 
ATOM      5  C1  UA3 d          38.622   0.094  12.502  0.00  0.00     0.141 C 
ATOM      6  H7  UA3 d          37.339  -1.567  11.299  0.00  0.00     0.090 H 
ATOM      7  H8  UA3 d          35.324  -0.999  12.891  0.00  0.00     0.092 H 
ATOM      8  H9  UA3 d          37.700  -0.235  14.554  0.00  0.00     0.093 H 
ATOM      9  H11 UA3 d          39.262  -0.800  12.532  0.00  0.00     0.123 H 
ENDROOT
BRANCH   5  10
ATOM     10  N1  UA3 d          39.317   1.256  12.874  0.00  0.00    -0.280 N 
ATOM     11  C2  UA3 d          40.481   1.066  13.674  0.00  0.00     0.331 A 
ATOM     12  O2  UA3 d          40.857  -0.005  13.993  0.00  0.00    -0.246 OA
ATOM     13  N3  UA3 d          41.112   2.268  14.025  0.00  0.00    -0.275 N 
ATOM     14  C4  UA3 d          40.725   3.584  13.686  0.00  0.00     0.250 A 
ATOM     15  H1  UA3 d          41.938   2.183  14.583  0.00  0.00     0.173 HD
ATOM     16  O4  UA3 d          41.407   4.501  14.089  0.00  0.00    -0.268 OA
ATOM     17  C5  UA3 d          39.522   3.679  12.875  0.00  0.00    -0.002 A 
ATOM     18  C6  UA3 d          38.872   2.562  12.503  0.00  0.00    -0.008 A 
ATOM     19  H2  UA3 d          39.147   4.654  12.570  0.00  0.00     0.094 H 
ATOM     20  H3  UA3 d          37.973   2.656  11.896  0.00  0.00     0.112 H 
ENDBRANCH   5  10
BRANCH   4  21
ATOM     21  O2  UA3 d          36.337   1.373  13.908  0.00  0.00    -0.388 OA
ATOM     22  H10 UA3 d          36.084   1.346  14.823  0.00  0.00     0.210 HD
ENDBRANCH   4  21
BRANCH   1  23
ATOM     23  C5  UA3 d          35.836  -0.828  10.591  0.00  0.00     0.043 C 
ATOM     24  H5  UA3 d          35.319   0.135  10.470  0.00  0.00     0.078 H 
ATOM     25  H6  UA3 d          36.370  -1.077   9.663  0.00  0.00     0.078 H 
BRANCH  23  26
ATOM     26  O5  UA3 d          34.735  -1.928  10.809  0.00  0.00    -0.398 OA
ATOM     27  H4  UA3 d          33.887  -1.511  10.908  0.00  0.00     0.209 HD
ENDBRANCH  23  26
ENDBRANCH   1  23
BRANCH   3  28
ATOM     28  O3  UA3 d          36.636  -2.502  13.502  0.00  0.00    -0.272 OA
BRANCH  28  29
ATOM     29  P   UA3 d          37.042  -3.854  12.973  0.00  0.00     0.422 P 
ATOM     30  O3P UA3 d          35.888  -4.276  11.944  0.00  0.00    -0.617 OA
ATOM     31  O1P UA3 d          37.189  -4.805  14.124  0.00  0.00    -0.617 OA
ATOM     32  O2P UA3 d          38.337  -3.719  12.217  0.00  0.00    -0.617 OA
ENDBRANCH  28  29
ENDBRANCH   3  28
TORSDOF 6
ENDMDL
MODEL 7
REMARK VINA RESULT:      -4.2      2.219      3.784
REMARK  6 active torsions:
REMARK  status: ('A' for Active; 'I' for Inactive)
REMARK    1  A    between atoms: C1_17  and  N1_1 
REMARK    2  A    between atoms: C5_10  and  O5_9 
REMARK    3  A    between atoms: C4_11  and  C5_10 
REMARK    4  A    between atoms: C3_13  and  O3_14 
REMARK    5  A    between atoms: O3_14  and  P_19 
REMARK    6  A    between atoms: C2_15  and  O2_16 
ROOT
ATOM      1  C4  UA3 d          37.091   1.556  13.281  0.00  0.00     0.089 C 
ATOM      2  O4  UA3 d          36.610   0.331  13.825  0.00  0.00    -0.353 OA
ATOM      3  C3  UA3 d          38.266   1.825  12.617  0.00  0.00     0.107 C 
ATOM      4  C2  UA3 d          38.511   0.128  12.292  0.00  0.00     0.106 C 
ATOM      5  C1  UA3 d          37.970  -0.433  13.788  0.00  0.00     0.141 C 
ATOM      6  H7  UA3 d          37.496   1.895  14.246  0.00  0.00     0.090 H 
ATOM      7  H8  UA3 d          37.989   2.377  11.708  0.00  0.00     0.092 H 
ATOM      8  H9  UA3 d          39.582  -0.112  12.216  0.00  0.00     0.093 H 
ATOM      9  H11 UA3 d          38.616  -0.200  14.647  0.00  0.00     0.123 H 
ENDROOT
BRANCH   5  10
ATOM     10  N1  UA3 d          37.864  -1.814  13.563  0.00  0.00    -0.280 N 
ATOM     11  C2  UA3 d          39.032  -2.588  13.827  0.00  0.00     0.331 A 
ATOM     12  O2  UA3 d          40.028  -2.105  14.231  0.00  0.00    -0.246 OA
ATOM     13  N3  UA3 d          38.860  -3.954  13.562  0.00  0.00    -0.275 N 
ATOM     14  C4  UA3 d          37.705  -4.608  13.077  0.00  0.00     0.250 A 
ATOM     15  H1  UA3 d          39.653  -4.538  13.738  0.00  0.00     0.173 HD
ATOM     16  O4  UA3 d          37.755  -5.806  12.910  0.00  0.00    -0.268 OA
ATOM     17  C5  UA3 d          36.568  -3.736  12.830  0.00  0.00    -0.002 A 
ATOM     18  C6  UA3 d          36.667  -2.416  13.068  0.00  0.00    -0.008 A 
ATOM     19  H2  UA3 d          35.635  -4.152  12.452  0.00  0.00     0.094 H 
ATOM     20  H3  UA3 d          35.803  -1.783  12.875  0.00  0.00     0.112 H 
ENDBRANCH   5  10
BRANCH   4  21
ATOM     21  O2  UA3 d          37.878  -0.247  10.823  0.00  0.00    -0.388 OA
ATOM     22  H10 UA3 d          37.147   0.330  10.637  0.00  0.00     0.210 HD
ENDBRANCH   4  21
BRANCH   1  23
ATOM     23  C5  UA3 d          36.148   2.497  13.184  0.00  0.00     0.043 C 
ATOM     24  H5  UA3 d          35.178   1.983  13.117  0.00  0.00     0.078 H 
ATOM     25  H6  UA3 d          36.185   3.094  14.106  0.00  0.00     0.078 H 
BRANCH  23  26
ATOM     26  O5  UA3 d          36.235   3.496  11.974  0.00  0.00    -0.398 OA
ATOM     27  H4  UA3 d          36.835   3.152  11.323  0.00  0.00     0.209 HD
ENDBRANCH  23  26
ENDBRANCH   1  23
BRANCH   3  28
ATOM     28  O3  UA3 d          39.597   2.478  13.034  0.00  0.00    -0.272 OA
BRANCH  28  29
ATOM     29  P   UA3 d          40.481   3.474  12.326  0.00  0.00     0.422 P 
ATOM     30  O3P UA3 d          41.356   4.164  13.479  0.00  0.00    -0.617 OA
ATOM     31  O1P UA3 d          39.619   4.444  11.573  0.00  0.00    -0.617 OA
ATOM     32  O2P UA3 d          41.405   2.738  11.394  0.00  0.00    -0.617 OA
ENDBRANCH  28  29
ENDBRANCH   3  28
TORSDOF 6
ENDMDL
MODEL 8
REMARK VINA RESULT:      -2.4      3.147      5.887
REMARK  6 active torsions:
REMARK  status: ('A' for Active; 'I' for Inactive)
REMARK    1  A    between atoms: C1_17  and  N1_1 
REMARK    2  A    between atoms: C5_10  and  O5_9 
REMARK    3  A    between atoms: C4_11  and  C5_10 
REMARK    4  A    between atoms: C3_13  and  O3_14 
REMARK    5  A    between atoms: O3_14  and  P_19 
REMARK    6  A    between atoms: C2_15  and  O2_16 
ROOT
ATOM      1  C4  UA3 d          39.298  -2.317  12.683  0.00  0.00     0.089 C 
ATOM      2  O4  UA3 d          39.210  -1.213  13.579  0.00  0.00    -0.353 OA
ATOM      3  C3  UA3 d          38.485  -2.666  11.630  0.00  0.00     0.107 C 
ATOM      4  C2  UA3 d          37.813  -1.057  11.571  0.00  0.00     0.106 C 
ATOM      5  C1  UA3 d          37.739  -0.820  13.240  0.00  0.00     0.141 C 
ATOM      6  H7  UA3 d          38.783  -2.999  13.376  0.00  0.00     0.090 H 
ATOM      7  H8  UA3 d          39.149  -2.860  10.775  0.00  0.00     0.092 H 
ATOM      8  H9  UA3 d          36.780  -1.069  11.192  0.00  0.00     0.093 H 
ATOM      9  H11 UA3 d          36.997  -1.431  13.776  0.00  0.00     0.123 H 
ENDROOT
BRANCH   5  10
ATOM     10  N1  UA3 d          37.460   0.552  13.330  0.00  0.00    -0.280 N 
ATOM     11  C2  UA3 d          36.292   1.006  12.649  0.00  0.00     0.331 A 
ATOM     12  O2  UA3 d          35.585   0.272  12.057  0.00  0.00    -0.246 OA
ATOM     13  N3  UA3 d          36.087   2.388  12.765  0.00  0.00    -0.275 N 
ATOM     14  C4  UA3 d          36.886   3.331  13.450  0.00  0.00     0.250 A 
ATOM     15  H1  UA3 d          35.276   2.751  12.306  0.00  0.00     0.173 HD
ATOM     16  O4  UA3 d          36.539   4.491  13.434  0.00  0.00    -0.268 OA
ATOM     17  C5  UA3 d          38.058   2.777  14.108  0.00  0.00    -0.002 A 
ATOM     18  C6  UA3 d          38.309   1.458  14.037  0.00  0.00    -0.008 A 
ATOM     19  H2  UA3 d          38.734   3.431  14.657  0.00  0.00     0.094 H 
ATOM     20  H3  UA3 d          39.193   1.065  14.536  0.00  0.00     0.112 H 
ENDBRANCH   5  10
BRANCH   4  21
ATOM     21  O2  UA3 d          38.657  -0.147  10.495  0.00  0.00    -0.388 OA
ATOM     22  H10 UA3 d          38.505  -0.475   9.616  0.00  0.00     0.210 HD
ENDBRANCH   4  21
BRANCH   1  23
ATOM     23  C5  UA3 d          40.480  -2.938  12.726  0.00  0.00     0.043 C 
ATOM     24  H5  UA3 d          40.352  -3.920  12.247  0.00  0.00     0.078 H 
ATOM     25  H6  UA3 d          41.189  -2.335  12.141  0.00  0.00     0.078 H 
BRANCH  23  26
ATOM     26  O5  UA3 d          41.126  -3.184  14.137  0.00  0.00    -0.398 OA
ATOM     27  H4  UA3 d          41.968  -2.745  14.180  0.00  0.00     0.209 HD
ENDBRANCH  23  26
ENDBRANCH   1  23
BRANCH   3  28
ATOM     28  O3  UA3 d          37.367  -3.709  11.450  0.00  0.00    -0.272 OA
BRANCH  28  29
ATOM     29  P   UA3 d          36.550  -4.476  12.458  0.00  0.00     0.422 P 
ATOM     30  O3P UA3 d          36.498  -3.547  13.763  0.00  0.00    -0.617 OA
ATOM     31  O1P UA3 d          37.199  -5.807  12.701  0.00  0.00    -0.617 OA
ATOM     32  O2P UA3 d          35.150  -4.648  11.932  0.00  0.00    -0.617 OA
ENDBRANCH  28  29
ENDBRANCH   3  28
TORSDOF 6
ENDMDL
