MODEL 1
REMARK VINA RESULT:      -6.2      0.000      0.000
REMARK  4 active torsions:
REMARK  status: ('A' for Active; 'I' for Inactive)
REMARK    1  A    between atoms: CA_3  and  N_2 
REMARK    2  A    between atoms: CA_3  and  C_4 
REMARK    3  A    between atoms: CB_10  and  CA_3 
REMARK    4  A    between atoms: CG_9  and  CB_10 
ROOT
ATOM      1  CB  R2P d         -31.203  -4.489  41.911  0.00  0.00     0.016 C 
ATOM      2  H6  R2P d         -30.208  -4.271  41.497  0.00  0.00     0.046 H 
ATOM      3  H7  R2P d         -31.976  -4.150  41.207  0.00  0.00     0.046 H 
ENDROOT
BRANCH   1   4
ATOM      4  CA  R2P d         -31.374  -3.718  43.278  0.00  0.00     0.187 C 
ATOM      5  H4  R2P d         -32.440  -3.460  43.361  0.00  0.00     0.101 H 
BRANCH   4   6
ATOM      6  N   R2P d         -30.982  -4.415  44.571  0.00  0.00    -0.065 N 
ATOM      7  H1  R2P d         -31.785  -4.890  44.954  0.00  0.00     0.275 HD
ATOM      8  H2  R2P d         -30.648  -3.733  45.233  0.00  0.00     0.275 HD
ATOM      9  H3  R2P d         -30.254  -5.086  44.383  0.00  0.00     0.275 HD
ENDBRANCH   4   6
BRANCH   4  10
ATOM     10  C   R2P d         -30.543  -2.421  43.222  0.00  0.00     0.204 C 
ATOM     11  O   R2P d         -30.811  -1.550  44.192  0.00  0.00    -0.646 OA
ATOM     12  O   R2P d         -29.749  -2.290  42.305  0.00  0.00    -0.646 OA
ENDBRANCH   4  10
ENDBRANCH   1   4
BRANCH   1  13
ATOM     13  CG  R2P d         -31.339  -5.994  42.118  0.00  0.00     0.101 A 
ATOM     14  N1  R2P d         -32.249  -6.604  42.867  0.00  0.00    -0.195 NA
ATOM     15  SE1 R2P d         -32.022  -8.282  42.795  0.00  0.00     0.093 SA
ATOM     16  N2  R2P d         -30.729  -8.222  41.783  0.00  0.00    -0.287 N 
ATOM     17  CD2 R2P d         -30.446  -6.944  41.484  0.00  0.00     0.211 A 
ATOM     18  H5  R2P d         -30.228  -9.018  41.441  0.00  0.00     0.178 HD
ATOM     19  O2  R2P d         -29.456  -6.558  40.685  0.00  0.00    -0.169 OA
ENDBRANCH   1  13
TORSDOF 4
ENDMDL
MODEL 2
REMARK VINA RESULT:      -5.0      1.533      1.730
REMARK  4 active torsions:
REMARK  status: ('A' for Active; 'I' for Inactive)
REMARK    1  A    between atoms: CA_3  and  N_2 
REMARK    2  A    between atoms: CA_3  and  C_4 
REMARK    3  A    between atoms: CB_10  and  CA_3 
REMARK    4  A    between atoms: CG_9  and  CB_10 
ROOT
ATOM      1  CB  R2P d         -30.576  -4.512  41.704  0.00  0.00     0.016 C 
ATOM      2  H6  R2P d         -29.500  -4.343  41.552  0.00  0.00     0.046 H 
ATOM      3  H7  R2P d         -31.141  -4.041  40.886  0.00  0.00     0.046 H 
ENDROOT
BRANCH   1   4
ATOM      4  CA  R2P d         -31.014  -3.863  43.075  0.00  0.00     0.187 C 
ATOM      5  H4  R2P d         -32.113  -3.892  43.098  0.00  0.00     0.101 H 
BRANCH   4   6
ATOM      6  N   R2P d         -30.524  -4.484  44.373  0.00  0.00    -0.065 N 
ATOM      7  H1  R2P d         -31.185  -5.178  44.684  0.00  0.00     0.275 HD
ATOM      8  H2  R2P d         -30.434  -3.767  45.076  0.00  0.00     0.275 HD
ATOM      9  H3  R2P d         -29.628  -4.919  44.220  0.00  0.00     0.275 HD
ENDBRANCH   4   6
BRANCH   4  10
ATOM     10  C   R2P d         -30.546  -2.394  43.099  0.00  0.00     0.204 C 
ATOM     11  O   R2P d         -31.069  -1.663  44.079  0.00  0.00    -0.646 OA
ATOM     12  O   R2P d         -29.777  -2.025  42.226  0.00  0.00    -0.646 OA
ENDBRANCH   4  10
ENDBRANCH   1   4
BRANCH   1  13
ATOM     13  CG  R2P d         -30.851  -6.012  41.702  0.00  0.00     0.101 A 
ATOM     14  N1  R2P d         -30.189  -6.930  41.010  0.00  0.00    -0.195 NA
ATOM     15  SE1 R2P d         -30.839  -8.464  41.322  0.00  0.00     0.093 SA
ATOM     16  N2  R2P d         -31.994  -7.937  42.365  0.00  0.00    -0.287 N 
ATOM     17  CD2 R2P d         -31.912  -6.603  42.495  0.00  0.00     0.211 A 
ATOM     18  H5  R2P d         -32.658  -8.522  42.833  0.00  0.00     0.178 HD
ATOM     19  O2  R2P d         -32.706  -5.872  43.270  0.00  0.00    -0.169 OA
ENDBRANCH   1  13
TORSDOF 4
ENDMDL
MODEL 3
REMARK VINA RESULT:      -4.9      2.980      4.784
REMARK  4 active torsions:
REMARK  status: ('A' for Active; 'I' for Inactive)
REMARK    1  A    between atoms: CA_3  and  N_2 
REMARK    2  A    between atoms: CA_3  and  C_4 
REMARK    3  A    between atoms: CB_10  and  CA_3 
REMARK    4  A    between atoms: CG_9  and  CB_10 
ROOT
ATOM      1  CB  R2P d         -31.123  -5.177  40.809  0.00  0.00     0.016 C 
ATOM      2  H6  R2P d         -32.160  -5.532  40.715  0.00  0.00     0.046 H 
ATOM      3  H7  R2P d         -30.851  -4.598  39.913  0.00  0.00     0.046 H 
ENDROOT
BRANCH   1   4
ATOM      4  CA  R2P d         -30.159  -6.421  40.933  0.00  0.00     0.187 C 
ATOM      5  H4  R2P d         -29.451  -6.354  40.094  0.00  0.00     0.101 H 
BRANCH   4   6
ATOM      6  N   R2P d         -29.336  -6.591  42.200  0.00  0.00    -0.065 N 
ATOM      7  H1  R2P d         -28.471  -6.083  42.109  0.00  0.00     0.275 HD
ATOM      8  H2  R2P d         -29.138  -7.569  42.343  0.00  0.00     0.275 HD
ATOM      9  H3  R2P d         -29.854  -6.235  42.987  0.00  0.00     0.275 HD
ENDBRANCH   4   6
BRANCH   4  10
ATOM     10  C   R2P d         -30.994  -7.710  40.788  0.00  0.00     0.204 C 
ATOM     11  O   R2P d         -30.278  -8.829  40.730  0.00  0.00    -0.646 OA
ATOM     12  O   R2P d         -32.207  -7.599  40.714  0.00  0.00    -0.646 OA
ENDBRANCH   4  10
ENDBRANCH   1   4
BRANCH   1  13
ATOM     13  CG  R2P d         -31.010  -4.280  42.037  0.00  0.00     0.101 A 
ATOM     14  N1  R2P d         -30.382  -3.113  42.101  0.00  0.00    -0.195 NA
ATOM     15  SE1 R2P d         -30.521  -2.470  43.663  0.00  0.00     0.093 SA
ATOM     16  N2  R2P d         -31.405  -3.716  44.268  0.00  0.00    -0.287 N 
ATOM     17  CD2 R2P d         -31.608  -4.634  43.309  0.00  0.00     0.211 A 
ATOM     18  H5  R2P d         -31.741  -3.781  45.208  0.00  0.00     0.178 HD
ATOM     19  O2  R2P d         -32.290  -5.763  43.479  0.00  0.00    -0.169 OA
ENDBRANCH   1  13
TORSDOF 4
ENDMDL
