MODEL 1
REMARK VINA RESULT:      -6.3      0.000      0.000
REMARK  6 active torsions:
REMARK  status: ('A' for Active; 'I' for Inactive)
REMARK    1  A    between atoms: P_2  and  O5'_5 
REMARK    2  A    between atoms: O5'_5  and  C5'_6 
REMARK    3  A    between atoms: C5'_6  and  C4'_7 
REMARK    4  A    between atoms: C3'_9  and  O3'_10 
REMARK    5  A    between atoms: C2'_11  and  O2'_12 
REMARK    6  A    between atoms: C1'_13  and  N1_14 
ROOT
ATOM      1  C4' MOL d          40.766  41.161  36.573  0.00  0.00     0.089 C 
ATOM      2  O4' MOL d          39.989  39.999  36.908  0.00  0.00    -0.353 OA
ATOM      3  C3' MOL d          42.209  40.702  36.602  0.00  0.00     0.091 C 
ATOM      4  C2' MOL d          42.086  39.209  36.277  0.00  0.00     0.105 C 
ATOM      5  C1' MOL d          40.734  38.838  36.840  0.00  0.00     0.141 C 
ATOM      6  H3  MOL d          40.649  41.917  37.364  0.00  0.00     0.090 H 
ATOM      7  H4  MOL d          42.812  41.233  35.851  0.00  0.00     0.091 H 
ATOM      8  H6  MOL d          42.102  39.068  35.187  0.00  0.00     0.093 H 
ATOM      9  H8  MOL d          40.918  38.507  37.873  0.00  0.00     0.123 H 
ENDROOT
BRANCH   5  10
ATOM     10  N1  MOL d          39.982  37.738  36.220  0.00  0.00    -0.280 N 
ATOM     11  C2  MOL d          40.176  36.430  36.659  0.00  0.00     0.331 A 
ATOM     12  O2  MOL d          40.955  36.193  37.548  0.00  0.00    -0.246 OA
ATOM     13  N3  MOL d          39.429  35.464  36.007  0.00  0.00    -0.275 N 
ATOM     14  C4  MOL d          38.514  35.669  34.970  0.00  0.00     0.250 A 
ATOM     15  H9  MOL d          39.557  34.519  36.309  0.00  0.00     0.173 HD
ATOM     16  O4  MOL d          37.950  34.700  34.509  0.00  0.00    -0.268 OA
ATOM     17  C5  MOL d          38.374  37.042  34.580  0.00  0.00    -0.002 A 
ATOM     18  C6  MOL d          39.078  38.002  35.186  0.00  0.00    -0.008 A 
ATOM     19  H10 MOL d          37.686  37.304  33.778  0.00  0.00     0.094 H 
ATOM     20  H11 MOL d          38.942  39.032  34.862  0.00  0.00     0.112 H 
ENDBRANCH   5  10
BRANCH   4  21
ATOM     21  O2' MOL d          43.111  38.372  36.857  0.00  0.00    -0.388 OA
ATOM     22  H7  MOL d          42.721  37.802  37.510  0.00  0.00     0.210 HD
ENDBRANCH   4  21
BRANCH   1  23
ATOM     23  C5' MOL d          40.213  41.771  35.309  0.00  0.00     0.059 C 
ATOM     24  H1  MOL d          40.982  42.388  34.821  0.00  0.00     0.079 H 
ATOM     25  H2  MOL d          39.886  40.979  34.619  0.00  0.00     0.079 H 
BRANCH  23  26
ATOM     26  O5' MOL d          39.091  42.590  35.688  0.00  0.00    -0.280 OA
BRANCH  26  27
ATOM     27  P   MOL d          37.580  42.086  35.570  0.00  0.00     0.422 P 
ATOM     28  O3P MOL d          37.094  41.678  37.043  0.00  0.00    -0.617 OA
ATOM     29  O1P MOL d          37.437  40.955  34.560  0.00  0.00    -0.617 OA
ATOM     30  O2P MOL d          36.815  43.274  35.130  0.00  0.00    -0.617 OA
ENDBRANCH  26  27
ENDBRANCH  23  26
ENDBRANCH   1  23
BRANCH   3  31
ATOM     31  O3' MOL d          42.786  40.871  37.892  0.00  0.00    -0.390 OA
ATOM     32  H5  MOL d          43.706  40.633  37.860  0.00  0.00     0.210 HD
ENDBRANCH   3  31
TORSDOF 6
ENDMDL
MODEL 2
REMARK VINA RESULT:      -6.2      2.111      4.179
REMARK  6 active torsions:
REMARK  status: ('A' for Active; 'I' for Inactive)
REMARK    1  A    between atoms: P_2  and  O5'_5 
REMARK    2  A    between atoms: O5'_5  and  C5'_6 
REMARK    3  A    between atoms: C5'_6  and  C4'_7 
REMARK    4  A    between atoms: C3'_9  and  O3'_10 
REMARK    5  A    between atoms: C2'_11  and  O2'_12 
REMARK    6  A    between atoms: C1'_13  and  N1_14 
ROOT
ATOM      1  C4' MOL d          40.875  41.040  34.540  0.00  0.00     0.089 C 
ATOM      2  O4' MOL d          40.109  39.824  34.521  0.00  0.00    -0.353 OA
ATOM      3  C3' MOL d          40.267  41.883  35.641  0.00  0.00     0.091 C 
ATOM      4  C2' MOL d          39.679  40.824  36.580  0.00  0.00     0.105 C 
ATOM      5  C1' MOL d          39.322  39.689  35.649  0.00  0.00     0.141 C 
ATOM      6  H3  MOL d          40.722  41.580  33.594  0.00  0.00     0.090 H 
ATOM      7  H4  MOL d          41.030  42.493  36.144  0.00  0.00     0.091 H 
ATOM      8  H6  MOL d          40.447  40.504  37.300  0.00  0.00     0.093 H 
ATOM      9  H8  MOL d          38.280  39.867  35.343  0.00  0.00     0.123 H 
ENDROOT
BRANCH   5  10
ATOM     10  N1  MOL d          39.333  38.313  36.165  0.00  0.00    -0.280 N 
ATOM     11  C2  MOL d          38.633  37.314  35.492  0.00  0.00     0.331 A 
ATOM     12  O2  MOL d          38.020  37.567  34.486  0.00  0.00    -0.246 OA
ATOM     13  N3  MOL d          38.697  36.053  36.062  0.00  0.00    -0.275 N 
ATOM     14  C4  MOL d          39.385  35.692  37.224  0.00  0.00     0.250 A 
ATOM     15  H9  MOL d          38.199  35.323  35.592  0.00  0.00     0.173 HD
ATOM     16  O4  MOL d          39.326  34.534  37.583  0.00  0.00    -0.268 OA
ATOM     17  C5  MOL d          40.077  36.778  37.853  0.00  0.00    -0.002 A 
ATOM     18  C6  MOL d          40.039  38.008  37.332  0.00  0.00    -0.008 A 
ATOM     19  H10 MOL d          40.642  36.598  38.766  0.00  0.00     0.094 H 
ATOM     20  H11 MOL d          40.581  38.806  37.838  0.00  0.00     0.112 H 
ENDBRANCH   5  10
BRANCH   4  21
ATOM     21  O2' MOL d          38.512  41.244  37.320  0.00  0.00    -0.388 OA
ATOM     22  H7  MOL d          37.763  40.725  37.050  0.00  0.00     0.210 HD
ENDBRANCH   4  21
BRANCH   1  23
ATOM     23  C5' MOL d          42.342  40.692  34.604  0.00  0.00     0.059 C 
ATOM     24  H1  MOL d          42.468  39.602  34.684  0.00  0.00     0.079 H 
ATOM     25  H2  MOL d          42.856  41.056  33.702  0.00  0.00     0.079 H 
BRANCH  23  26
ATOM     26  O5' MOL d          42.881  41.337  35.773  0.00  0.00    -0.280 OA
BRANCH  26  27
ATOM     27  P   MOL d          43.552  40.524  36.973  0.00  0.00     0.422 P 
ATOM     28  O3P MOL d          42.781  40.931  38.319  0.00  0.00    -0.617 OA
ATOM     29  O1P MOL d          45.054  40.766  37.049  0.00  0.00    -0.617 OA
ATOM     30  O2P MOL d          43.270  39.102  36.675  0.00  0.00    -0.617 OA
ENDBRANCH  26  27
ENDBRANCH  23  26
ENDBRANCH   1  23
BRANCH   3  31
ATOM     31  O3' MOL d          39.228  42.721  35.145  0.00  0.00    -0.390 OA
ATOM     32  H5  MOL d          38.493  42.184  34.872  0.00  0.00     0.210 HD
ENDBRANCH   3  31
TORSDOF 6
ENDMDL
MODEL 3
REMARK VINA RESULT:      -5.7      1.892      4.684
REMARK  6 active torsions:
REMARK  status: ('A' for Active; 'I' for Inactive)
REMARK    1  A    between atoms: P_2  and  O5'_5 
REMARK    2  A    between atoms: O5'_5  and  C5'_6 
REMARK    3  A    between atoms: C5'_6  and  C4'_7 
REMARK    4  A    between atoms: C3'_9  and  O3'_10 
REMARK    5  A    between atoms: C2'_11  and  O2'_12 
REMARK    6  A    between atoms: C1'_13  and  N1_14 
ROOT
ATOM      1  C4' MOL d          39.262  38.364  34.670  0.00  0.00     0.089 C 
ATOM      2  O4' MOL d          40.493  38.996  35.055  0.00  0.00    -0.353 OA
ATOM      3  C3' MOL d          39.241  37.040  35.404  0.00  0.00     0.091 C 
ATOM      4  C2' MOL d          40.100  37.336  36.639  0.00  0.00     0.105 C 
ATOM      5  C1' MOL d          41.074  38.381  36.147  0.00  0.00     0.141 C 
ATOM      6  H3  MOL d          39.291  38.138  33.593  0.00  0.00     0.090 H 
ATOM      7  H4  MOL d          38.217  36.753  35.681  0.00  0.00     0.091 H 
ATOM      8  H6  MOL d          39.465  37.747  37.438  0.00  0.00     0.093 H 
ATOM      9  H8  MOL d          41.951  37.826  35.781  0.00  0.00     0.123 H 
ENDROOT
BRANCH   5  10
ATOM     10  N1  MOL d          41.617  39.356  37.104  0.00  0.00    -0.280 N 
ATOM     11  C2  MOL d          42.879  39.906  36.892  0.00  0.00     0.331 A 
ATOM     12  O2  MOL d          43.530  39.592  35.928  0.00  0.00    -0.246 OA
ATOM     13  N3  MOL d          43.306  40.807  37.854  0.00  0.00    -0.275 N 
ATOM     14  C4  MOL d          42.606  41.212  38.993  0.00  0.00     0.250 A 
ATOM     15  H9  MOL d          44.211  41.211  37.718  0.00  0.00     0.173 HD
ATOM     16  O4  MOL d          43.139  42.011  39.735  0.00  0.00    -0.268 OA
ATOM     17  C5  MOL d          41.318  40.598  39.134  0.00  0.00    -0.002 A 
ATOM     18  C6  MOL d          40.871  39.725  38.227  0.00  0.00    -0.008 A 
ATOM     19  H10 MOL d          40.695  40.848  39.992  0.00  0.00     0.094 H 
ATOM     20  H11 MOL d          39.887  39.283  38.369  0.00  0.00     0.112 H 
ENDBRANCH   5  10
BRANCH   4  21
ATOM     21  O2' MOL d          40.817  36.200  37.170  0.00  0.00    -0.388 OA
ATOM     22  H7  MOL d          41.298  36.466  37.946  0.00  0.00     0.210 HD
ENDBRANCH   4  21
BRANCH   1  23
ATOM     23  C5' MOL d          38.127  39.338  34.874  0.00  0.00     0.059 C 
ATOM     24  H1  MOL d          37.382  39.221  34.074  0.00  0.00     0.079 H 
ATOM     25  H2  MOL d          37.649  39.160  35.849  0.00  0.00     0.079 H 
BRANCH  23  26
ATOM     26  O5' MOL d          38.691  40.662  34.834  0.00  0.00    -0.280 OA
BRANCH  26  27
ATOM     27  P   MOL d          38.042  41.897  35.613  0.00  0.00     0.422 P 
ATOM     28  O3P MOL d          36.500  41.979  35.182  0.00  0.00    -0.617 OA
ATOM     29  O1P MOL d          38.803  43.191  35.355  0.00  0.00    -0.617 OA
ATOM     30  O2P MOL d          38.116  41.527  37.044  0.00  0.00    -0.617 OA
ENDBRANCH  26  27
ENDBRANCH  23  26
ENDBRANCH   1  23
BRANCH   3  31
ATOM     31  O3' MOL d          39.842  36.005  34.634  0.00  0.00    -0.390 OA
ATOM     32  H5  MOL d          39.763  36.213  33.710  0.00  0.00     0.210 HD
ENDBRANCH   3  31
TORSDOF 6
ENDMDL
MODEL 4
REMARK VINA RESULT:      -4.7      1.123      1.748
REMARK  6 active torsions:
REMARK  status: ('A' for Active; 'I' for Inactive)
REMARK    1  A    between atoms: P_2  and  O5'_5 
REMARK    2  A    between atoms: O5'_5  and  C5'_6 
REMARK    3  A    between atoms: C5'_6  and  C4'_7 
REMARK    4  A    between atoms: C3'_9  and  O3'_10 
REMARK    5  A    between atoms: C2'_11  and  O2'_12 
REMARK    6  A    between atoms: C1'_13  and  N1_14 
ROOT
ATOM      1  C4' MOL d          41.087  41.022  37.008  0.00  0.00     0.089 C 
ATOM      2  O4' MOL d          40.348  39.851  37.392  0.00  0.00    -0.353 OA
ATOM      3  C3' MOL d          42.512  40.550  36.805  0.00  0.00     0.091 C 
ATOM      4  C2' MOL d          42.320  39.078  36.425  0.00  0.00     0.105 C 
ATOM      5  C1' MOL d          41.056  38.688  37.157  0.00  0.00     0.141 C 
ATOM      6  H3  MOL d          41.097  41.735  37.846  0.00  0.00     0.090 H 
ATOM      7  H4  MOL d          43.008  41.115  36.003  0.00  0.00     0.091 H 
ATOM      8  H6  MOL d          42.176  38.995  35.337  0.00  0.00     0.093 H 
ATOM      9  H8  MOL d          41.383  38.301  38.133  0.00  0.00     0.123 H 
ENDROOT
BRANCH   5  10
ATOM     10  N1  MOL d          40.206  37.630  36.596  0.00  0.00    -0.280 N 
ATOM     11  C2  MOL d          39.967  37.585  35.224  0.00  0.00     0.331 A 
ATOM     12  O2  MOL d          40.457  38.407  34.491  0.00  0.00    -0.246 OA
ATOM     13  N3  MOL d          39.146  36.556  34.793  0.00  0.00    -0.275 N 
ATOM     14  C4  MOL d          38.545  35.575  35.587  0.00  0.00     0.250 A 
ATOM     15  H9  MOL d          38.963  36.510  33.811  0.00  0.00     0.173 HD
ATOM     16  O4  MOL d          37.847  34.749  35.039  0.00  0.00    -0.268 OA
ATOM     17  C5  MOL d          38.842  35.694  36.985  0.00  0.00    -0.002 A 
ATOM     18  C6  MOL d          39.631  36.673  37.437  0.00  0.00    -0.008 A 
ATOM     19  H10 MOL d          38.419  34.976  37.686  0.00  0.00     0.094 H 
ATOM     20  H11 MOL d          39.834  36.727  38.505  0.00  0.00     0.112 H 
ENDBRANCH   5  10
BRANCH   4  21
ATOM     21  O2' MOL d          43.404  38.203  36.806  0.00  0.00    -0.388 OA
ATOM     22  H7  MOL d          43.107  37.613  37.489  0.00  0.00     0.210 HD
ENDBRANCH   4  21
BRANCH   1  23
ATOM     23  C5' MOL d          40.367  41.704  35.871  0.00  0.00     0.059 C 
ATOM     24  H1  MOL d          40.904  42.619  35.581  0.00  0.00     0.079 H 
ATOM     25  H2  MOL d          40.302  41.027  35.006  0.00  0.00     0.079 H 
BRANCH  23  26
ATOM     26  O5' MOL d          39.047  42.033  36.340  0.00  0.00    -0.280 OA
BRANCH  26  27
ATOM     27  P   MOL d          37.734  41.297  35.804  0.00  0.00     0.422 P 
ATOM     28  O3P MOL d          38.157  40.440  34.516  0.00  0.00    -0.617 OA
ATOM     29  O1P MOL d          36.609  42.283  35.521  0.00  0.00    -0.617 OA
ATOM     30  O2P MOL d          37.349  40.367  36.888  0.00  0.00    -0.617 OA
ENDBRANCH  26  27
ENDBRANCH  23  26
ENDBRANCH   1  23
BRANCH   3  31
ATOM     31  O3' MOL d          43.272  40.646  38.005  0.00  0.00    -0.390 OA
ATOM     32  H5  MOL d          42.834  40.160  38.694  0.00  0.00     0.210 HD
ENDBRANCH   3  31
TORSDOF 6
ENDMDL
MODEL 5
REMARK VINA RESULT:      -4.4      2.897      5.492
REMARK  6 active torsions:
REMARK  status: ('A' for Active; 'I' for Inactive)
REMARK    1  A    between atoms: P_2  and  O5'_5 
REMARK    2  A    between atoms: O5'_5  and  C5'_6 
REMARK    3  A    between atoms: C5'_6  and  C4'_7 
REMARK    4  A    between atoms: C3'_9  and  O3'_10 
REMARK    5  A    between atoms: C2'_11  and  O2'_12 
REMARK    6  A    between atoms: C1'_13  and  N1_14 
ROOT
ATOM      1  C4' MOL d          41.950  38.658  36.738  0.00  0.00     0.089 C 
ATOM      2  O4' MOL d          41.351  39.417  35.675  0.00  0.00    -0.353 OA
ATOM      3  C3' MOL d          42.750  39.658  37.546  0.00  0.00     0.091 C 
ATOM      4  C2' MOL d          41.997  40.968  37.288  0.00  0.00     0.105 C 
ATOM      5  C1' MOL d          41.429  40.778  35.900  0.00  0.00     0.141 C 
ATOM      6  H3  MOL d          42.665  37.938  36.312  0.00  0.00     0.090 H 
ATOM      7  H4  MOL d          42.755  39.396  38.614  0.00  0.00     0.091 H 
ATOM      8  H6  MOL d          41.187  41.077  38.024  0.00  0.00     0.093 H 
ATOM      9  H8  MOL d          42.185  41.180  35.209  0.00  0.00     0.123 H 
ENDROOT
BRANCH   5  10
ATOM     10  N1  MOL d          40.183  41.468  35.540  0.00  0.00    -0.280 N 
ATOM     11  C2  MOL d          40.234  42.714  34.920  0.00  0.00     0.331 A 
ATOM     12  O2  MOL d          41.294  43.231  34.672  0.00  0.00    -0.246 OA
ATOM     13  N3  MOL d          39.007  43.287  34.628  0.00  0.00    -0.275 N 
ATOM     14  C4  MOL d          37.746  42.745  34.890  0.00  0.00     0.250 A 
ATOM     15  H9  MOL d          39.026  44.183  34.184  0.00  0.00     0.173 HD
ATOM     16  O4  MOL d          36.771  43.393  34.570  0.00  0.00    -0.268 OA
ATOM     17  C5  MOL d          37.784  41.462  35.529  0.00  0.00    -0.002 A 
ATOM     18  C6  MOL d          38.948  40.878  35.825  0.00  0.00    -0.008 A 
ATOM     19  H10 MOL d          36.851  40.958  35.776  0.00  0.00     0.094 H 
ATOM     20  H11 MOL d          38.934  39.902  36.307  0.00  0.00     0.112 H 
ENDBRANCH   5  10
BRANCH   4  21
ATOM     21  O2' MOL d          42.812  42.159  37.331  0.00  0.00    -0.388 OA
ATOM     22  H7  MOL d          42.907  42.509  36.453  0.00  0.00     0.210 HD
ENDBRANCH   4  21
BRANCH   1  23
ATOM     23  C5' MOL d          40.879  37.846  37.424  0.00  0.00     0.059 C 
ATOM     24  H1  MOL d          41.124  37.723  38.489  0.00  0.00     0.079 H 
ATOM     25  H2  MOL d          39.905  38.348  37.326  0.00  0.00     0.079 H 
BRANCH  23  26
ATOM     26  O5' MOL d          40.839  36.562  36.775  0.00  0.00    -0.280 OA
BRANCH  26  27
ATOM     27  P   MOL d          39.479  35.899  36.261  0.00  0.00     0.422 P 
ATOM     28  O3P MOL d          39.836  35.003  34.980  0.00  0.00    -0.617 OA
ATOM     29  O1P MOL d          38.411  36.947  35.978  0.00  0.00    -0.617 OA
ATOM     30  O2P MOL d          39.051  35.005  37.360  0.00  0.00    -0.617 OA
ENDBRANCH  26  27
ENDBRANCH  23  26
ENDBRANCH   1  23
BRANCH   3  31
ATOM     31  O3' MOL d          44.088  39.766  37.070  0.00  0.00    -0.390 OA
ATOM     32  H5  MOL d          44.534  40.462  37.538  0.00  0.00     0.210 HD
ENDBRANCH   3  31
TORSDOF 6
ENDMDL
MODEL 6
REMARK VINA RESULT:      -4.2      2.203      4.762
REMARK  6 active torsions:
REMARK  status: ('A' for Active; 'I' for Inactive)
REMARK    1  A    between atoms: P_2  and  O5'_5 
REMARK    2  A    between atoms: O5'_5  and  C5'_6 
REMARK    3  A    between atoms: C5'_6  and  C4'_7 
REMARK    4  A    between atoms: C3'_9  and  O3'_10 
REMARK    5  A    between atoms: C2'_11  and  O2'_12 
REMARK    6  A    between atoms: C1'_13  and  N1_14 
ROOT
ATOM      1  C4' MOL d          38.950  39.101  34.962  0.00  0.00     0.089 C 
ATOM      2  O4' MOL d          40.347  39.099  35.298  0.00  0.00    -0.353 OA
ATOM      3  C3' MOL d          38.245  38.510  36.165  0.00  0.00     0.091 C 
ATOM      4  C2' MOL d          39.201  38.860  37.311  0.00  0.00     0.105 C 
ATOM      5  C1' MOL d          40.557  38.873  36.645  0.00  0.00     0.141 C 
ATOM      6  H3  MOL d          38.779  38.417  34.116  0.00  0.00     0.090 H 
ATOM      7  H4  MOL d          37.254  38.964  36.310  0.00  0.00     0.091 H 
ATOM      8  H6  MOL d          38.954  39.858  37.703  0.00  0.00     0.093 H 
ATOM      9  H8  MOL d          40.952  37.851  36.747  0.00  0.00     0.123 H 
ENDROOT
BRANCH   5  10
ATOM     10  N1  MOL d          41.610  39.741  37.190  0.00  0.00    -0.280 N 
ATOM     11  C2  MOL d          41.479  40.269  38.472  0.00  0.00     0.331 A 
ATOM     12  O2  MOL d          40.509  40.017  39.142  0.00  0.00    -0.246 OA
ATOM     13  N3  MOL d          42.519  41.082  38.893  0.00  0.00    -0.275 N 
ATOM     14  C4  MOL d          43.667  41.416  38.169  0.00  0.00     0.250 A 
ATOM     15  H9  MOL d          42.440  41.470  39.811  0.00  0.00     0.173 HD
ATOM     16  O4  MOL d          44.477  42.151  38.695  0.00  0.00    -0.268 OA
ATOM     17  C5  MOL d          43.722  40.831  36.861  0.00  0.00    -0.002 A 
ATOM     18  C6  MOL d          42.738  40.041  36.421  0.00  0.00    -0.008 A 
ATOM     19  H10 MOL d          44.578  41.034  36.218  0.00  0.00     0.094 H 
ATOM     20  H11 MOL d          42.819  39.615  35.423  0.00  0.00     0.112 H 
ENDBRANCH   5  10
BRANCH   4  21
ATOM     21  O2' MOL d          39.199  37.927  38.414  0.00  0.00    -0.388 OA
ATOM     22  H7  MOL d          39.438  37.064  38.097  0.00  0.00     0.210 HD
ENDBRANCH   4  21
BRANCH   1  23
ATOM     23  C5' MOL d          38.563  40.479  34.485  0.00  0.00     0.059 C 
ATOM     24  H1  MOL d          39.417  41.165  34.582  0.00  0.00     0.079 H 
ATOM     25  H2  MOL d          38.242  40.438  33.433  0.00  0.00     0.079 H 
BRANCH  23  26
ATOM     26  O5' MOL d          37.475  40.926  35.315  0.00  0.00    -0.280 OA
BRANCH  26  27
ATOM     27  P   MOL d          37.390  42.411  35.898  0.00  0.00     0.422 P 
ATOM     28  O3P MOL d          38.821  43.098  35.668  0.00  0.00    -0.617 OA
ATOM     29  O1P MOL d          36.950  42.423  37.355  0.00  0.00    -0.617 OA
ATOM     30  O2P MOL d          36.392  43.098  35.048  0.00  0.00    -0.617 OA
ENDBRANCH  26  27
ENDBRANCH  23  26
ENDBRANCH   1  23
BRANCH   3  31
ATOM     31  O3' MOL d          38.117  37.096  36.055  0.00  0.00    -0.390 OA
ATOM     32  H5  MOL d          38.965  36.691  36.197  0.00  0.00     0.210 HD
ENDBRANCH   3  31
TORSDOF 6
ENDMDL
MODEL 7
REMARK VINA RESULT:      -4.1      1.987      3.978
REMARK  6 active torsions:
REMARK  status: ('A' for Active; 'I' for Inactive)
REMARK    1  A    between atoms: P_2  and  O5'_5 
REMARK    2  A    between atoms: O5'_5  and  C5'_6 
REMARK    3  A    between atoms: C5'_6  and  C4'_7 
REMARK    4  A    between atoms: C3'_9  and  O3'_10 
REMARK    5  A    between atoms: C2'_11  and  O2'_12 
REMARK    6  A    between atoms: C1'_13  and  N1_14 
ROOT
ATOM      1  C4' MOL d          40.646  41.442  35.066  0.00  0.00     0.089 C 
ATOM      2  O4' MOL d          40.013  40.289  34.488  0.00  0.00    -0.353 OA
ATOM      3  C3' MOL d          39.647  41.993  36.062  0.00  0.00     0.091 C 
ATOM      4  C2' MOL d          38.848  40.745  36.451  0.00  0.00     0.105 C 
ATOM      5  C1' MOL d          38.902  39.891  35.206  0.00  0.00     0.141 C 
ATOM      6  H3  MOL d          40.787  42.208  34.289  0.00  0.00     0.090 H 
ATOM      7  H4  MOL d          40.153  42.439  36.931  0.00  0.00     0.091 H 
ATOM      8  H6  MOL d          39.346  40.236  37.290  0.00  0.00     0.093 H 
ATOM      9  H8  MOL d          38.016  40.165  34.615  0.00  0.00     0.123 H 
ENDROOT
BRANCH   5  10
ATOM     10  N1  MOL d          38.829  38.429  35.341  0.00  0.00    -0.280 N 
ATOM     11  C2  MOL d          39.587  37.784  36.316  0.00  0.00     0.331 A 
ATOM     12  O2  MOL d          40.300  38.415  37.054  0.00  0.00    -0.246 OA
ATOM     13  N3  MOL d          39.457  36.405  36.357  0.00  0.00    -0.275 N 
ATOM     14  C4  MOL d          38.653  35.614  35.532  0.00  0.00     0.250 A 
ATOM     15  H9  MOL d          39.995  35.926  37.051  0.00  0.00     0.173 HD
ATOM     16  O4  MOL d          38.667  34.413  35.707  0.00  0.00    -0.268 OA
ATOM     17  C5  MOL d          37.909  36.356  34.558  0.00  0.00    -0.002 A 
ATOM     18  C6  MOL d          38.007  37.687  34.488  0.00  0.00    -0.008 A 
ATOM     19  H10 MOL d          37.254  35.829  33.866  0.00  0.00     0.094 H 
ATOM     20  H11 MOL d          37.424  38.214  33.736  0.00  0.00     0.112 H 
ENDBRANCH   5  10
BRANCH   4  21
ATOM     21  O2' MOL d          37.474  40.991  36.824  0.00  0.00    -0.388 OA
ATOM     22  H7  MOL d          37.121  41.688  36.284  0.00  0.00     0.210 HD
ENDBRANCH   4  21
BRANCH   1  23
ATOM     23  C5' MOL d          42.025  41.056  35.543  0.00  0.00     0.059 C 
ATOM     24  H1  MOL d          42.344  40.122  35.057  0.00  0.00     0.079 H 
ATOM     25  H2  MOL d          42.743  41.856  35.308  0.00  0.00     0.079 H 
BRANCH  23  26
ATOM     26  O5' MOL d          41.944  40.868  36.968  0.00  0.00    -0.280 OA
BRANCH  26  27
ATOM     27  P   MOL d          43.170  41.170  37.947  0.00  0.00     0.422 P 
ATOM     28  O3P MOL d          44.283  40.046  37.682  0.00  0.00    -0.617 OA
ATOM     29  O1P MOL d          42.728  41.239  39.403  0.00  0.00    -0.617 OA
ATOM     30  O2P MOL d          43.701  42.477  37.502  0.00  0.00    -0.617 OA
ENDBRANCH  26  27
ENDBRANCH  23  26
ENDBRANCH   1  23
BRANCH   3  31
ATOM     31  O3' MOL d          38.784  42.953  35.461  0.00  0.00    -0.390 OA
ATOM     32  H5  MOL d          38.018  42.513  35.111  0.00  0.00     0.210 HD
ENDBRANCH   3  31
TORSDOF 6
ENDMDL
