MODEL 1
REMARK VINA RESULT:      -4.6      0.000      0.000
REMARK  3 active torsions:
REMARK  status: ('A' for Active; 'I' for Inactive)
REMARK    1  A    between atoms: C1'_1  and  C2_7 
REMARK    2  A    between atoms: C2_7  and  C1_8 
REMARK    3  A    between atoms: C1_8  and  N_9 
ROOT
ATOM      1  C1' PEA d          45.837  20.147  50.851  0.00  0.00    -0.057 A 
ATOM      2  C6' PEA d          46.630  20.987  51.614  0.00  0.00    -0.077 A 
ATOM      3  C5' PEA d          46.923  22.290  51.245  0.00  0.00    -0.082 A 
ATOM      4  C4' PEA d          46.429  22.808  50.057  0.00  0.00    -0.083 A 
ATOM      5  C3' PEA d          45.649  21.975  49.276  0.00  0.00    -0.082 A 
ATOM      6  C2' PEA d          45.365  20.687  49.665  0.00  0.00    -0.077 A 
ATOM      7  H1  PEA d          47.041  20.608  52.542  0.00  0.00     0.084 H 
ATOM      8  H2  PEA d          47.540  22.907  51.887  0.00  0.00     0.083 H 
ATOM      9  H3  PEA d          46.647  23.826  49.752  0.00  0.00     0.083 H 
ATOM     10  H4  PEA d          45.253  22.345  48.338  0.00  0.00     0.083 H 
ATOM     11  H5  PEA d          44.750  20.071  49.019  0.00  0.00     0.084 H 
ENDROOT
BRANCH   1  12
ATOM     12  C2  PEA d          45.542  18.835  51.278  0.00  0.00    -0.019 C 
ATOM     13  H6  PEA d          46.270  18.141  50.830  0.00  0.00     0.042 H 
ATOM     14  H7  PEA d          44.528  18.569  50.944  0.00  0.00     0.042 H 
BRANCH  12  15
ATOM     15  C1  PEA d          45.611  18.707  52.830  0.00  0.00     0.083 C 
ATOM     16  H8  PEA d          44.634  18.979  53.255  0.00  0.00     0.075 H 
ATOM     17  H9  PEA d          46.381  19.396  53.211  0.00  0.00     0.075 H 
BRANCH  15  18
ATOM     18  N   PEA d          45.954  17.315  53.253  0.00  0.00    -0.079 N 
ATOM     19  H10 PEA d          45.130  16.864  53.619  0.00  0.00     0.274 HD
ATOM     20  H11 PEA d          46.664  17.346  53.967  0.00  0.00     0.274 HD
ATOM     21  H12 PEA d          46.296  16.797  52.459  0.00  0.00     0.274 HD
ENDBRANCH  15  18
ENDBRANCH  12  15
ENDBRANCH   1  12
TORSDOF 3
ENDMDL
MODEL 2
REMARK VINA RESULT:      -4.5      0.077      1.570
REMARK  3 active torsions:
REMARK  status: ('A' for Active; 'I' for Inactive)
REMARK    1  A    between atoms: C1'_1  and  C2_7 
REMARK    2  A    between atoms: C2_7  and  C1_8 
REMARK    3  A    between atoms: C1_8  and  N_9 
ROOT
ATOM      1  C1' PEA d          45.873  20.192  50.850  0.00  0.00    -0.057 A 
ATOM      2  C6' PEA d          45.329  20.743  49.703  0.00  0.00    -0.077 A 
ATOM      3  C5' PEA d          45.589  22.041  49.292  0.00  0.00    -0.082 A 
ATOM      4  C4' PEA d          46.415  22.861  50.045  0.00  0.00    -0.083 A 
ATOM      5  C3' PEA d          46.953  22.329  51.202  0.00  0.00    -0.082 A 
ATOM      6  C2' PEA d          46.687  21.037  51.588  0.00  0.00    -0.077 A 
ATOM      7  H1  PEA d          44.669  20.132  49.099  0.00  0.00     0.084 H 
ATOM      8  H2  PEA d          45.144  22.417  48.377  0.00  0.00     0.083 H 
ATOM      9  H3  PEA d          46.631  23.879  49.738  0.00  0.00     0.083 H 
ATOM     10  H4  PEA d          47.598  22.945  51.819  0.00  0.00     0.083 H 
ATOM     11  H5  PEA d          47.131  20.665  52.505  0.00  0.00     0.084 H 
ENDROOT
BRANCH   1  12
ATOM     12  C2  PEA d          45.602  18.857  51.218  0.00  0.00    -0.019 C 
ATOM     13  H6  PEA d          46.393  18.208  50.813  0.00  0.00     0.042 H 
ATOM     14  H7  PEA d          44.631  18.560  50.796  0.00  0.00     0.042 H 
BRANCH  12  15
ATOM     15  C1  PEA d          45.553  18.689  52.767  0.00  0.00     0.083 C 
ATOM     16  H8  PEA d          44.535  18.911  53.118  0.00  0.00     0.075 H 
ATOM     17  H9  PEA d          46.261  19.394  53.226  0.00  0.00     0.075 H 
BRANCH  15  18
ATOM     18  N   PEA d          45.916  17.299  53.181  0.00  0.00    -0.079 N 
ATOM     19  H10 PEA d          46.098  17.280  54.172  0.00  0.00     0.274 HD
ATOM     20  H11 PEA d          46.741  17.005  52.683  0.00  0.00     0.274 HD
ATOM     21  H12 PEA d          45.154  16.675  52.967  0.00  0.00     0.274 HD
ENDBRANCH  15  18
ENDBRANCH  12  15
ENDBRANCH   1  12
TORSDOF 3
ENDMDL
MODEL 3
REMARK VINA RESULT:      -4.5      1.462      2.144
REMARK  3 active torsions:
REMARK  status: ('A' for Active; 'I' for Inactive)
REMARK    1  A    between atoms: C1'_1  and  C2_7 
REMARK    2  A    between atoms: C2_7  and  C1_8 
REMARK    3  A    between atoms: C1_8  and  N_9 
ROOT
ATOM      1  C1' PEA d          45.010  20.297  51.232  0.00  0.00    -0.057 A 
ATOM      2  C6' PEA d          44.303  20.615  50.086  0.00  0.00    -0.077 A 
ATOM      3  C5' PEA d          43.826  21.888  49.821  0.00  0.00    -0.082 A 
ATOM      4  C4' PEA d          44.036  22.917  50.728  0.00  0.00    -0.083 A 
ATOM      5  C3' PEA d          44.727  22.610  51.885  0.00  0.00    -0.082 A 
ATOM      6  C2' PEA d          45.197  21.341  52.126  0.00  0.00    -0.077 A 
ATOM      7  H1  PEA d          44.112  19.830  49.363  0.00  0.00     0.084 H 
ATOM      8  H2  PEA d          43.288  22.083  48.901  0.00  0.00     0.083 H 
ATOM      9  H3  PEA d          43.672  23.920  50.537  0.00  0.00     0.083 H 
ATOM     10  H4  PEA d          44.902  23.389  52.620  0.00  0.00     0.083 H 
ATOM     11  H5  PEA d          45.732  21.148  53.048  0.00  0.00     0.084 H 
ENDROOT
BRANCH   1  12
ATOM     12  C2  PEA d          45.500  18.992  51.450  0.00  0.00    -0.019 C 
ATOM     13  H6  PEA d          46.477  18.889  50.954  0.00  0.00     0.042 H 
ATOM     14  H7  PEA d          44.792  18.268  51.020  0.00  0.00     0.042 H 
BRANCH  12  15
ATOM     15  C1  PEA d          45.671  18.690  52.970  0.00  0.00     0.083 C 
ATOM     16  H8  PEA d          44.755  18.993  53.499  0.00  0.00     0.075 H 
ATOM     17  H9  PEA d          46.524  19.267  53.355  0.00  0.00     0.075 H 
BRANCH  15  18
ATOM     18  N   PEA d          45.916  17.237  53.218  0.00  0.00    -0.079 N 
ATOM     19  H10 PEA d          45.251  16.690  52.693  0.00  0.00     0.274 HD
ATOM     20  H11 PEA d          45.810  17.041  54.200  0.00  0.00     0.274 HD
ATOM     21  H12 PEA d          46.851  16.999  52.926  0.00  0.00     0.274 HD
ENDBRANCH  15  18
ENDBRANCH  12  15
ENDBRANCH   1  12
TORSDOF 3
ENDMDL
MODEL 4
REMARK VINA RESULT:      -4.3      2.743      4.083
REMARK  3 active torsions:
REMARK  status: ('A' for Active; 'I' for Inactive)
REMARK    1  A    between atoms: C1'_1  and  C2_7 
REMARK    2  A    between atoms: C2_7  and  C1_8 
REMARK    3  A    between atoms: C1_8  and  N_9 
ROOT
ATOM      1  C1' PEA d          45.492  20.832  50.210  0.00  0.00    -0.057 A 
ATOM      2  C6' PEA d          46.384  20.743  51.265  0.00  0.00    -0.077 A 
ATOM      3  C5' PEA d          46.368  19.706  52.183  0.00  0.00    -0.082 A 
ATOM      4  C4' PEA d          45.421  18.697  52.082  0.00  0.00    -0.083 A 
ATOM      5  C3' PEA d          44.513  18.781  51.043  0.00  0.00    -0.082 A 
ATOM      6  C2' PEA d          44.551  19.816  50.139  0.00  0.00    -0.077 A 
ATOM      7  H1  PEA d          47.128  21.523  51.378  0.00  0.00     0.084 H 
ATOM      8  H2  PEA d          47.098  19.681  52.983  0.00  0.00     0.083 H 
ATOM      9  H3  PEA d          45.394  17.876  52.790  0.00  0.00     0.083 H 
ATOM     10  H4  PEA d          43.754  18.013  50.938  0.00  0.00     0.083 H 
ATOM     11  H5  PEA d          43.817  19.840  49.341  0.00  0.00     0.084 H 
ENDROOT
BRANCH   1  12
ATOM     12  C2  PEA d          45.561  21.893  49.283  0.00  0.00    -0.019 C 
ATOM     13  H6  PEA d          45.300  21.512  48.284  0.00  0.00     0.042 H 
ATOM     14  H7  PEA d          46.587  22.289  49.268  0.00  0.00     0.042 H 
BRANCH  12  15
ATOM     15  C1  PEA d          44.580  23.045  49.657  0.00  0.00     0.083 C 
ATOM     16  H8  PEA d          45.097  24.008  49.532  0.00  0.00     0.075 H 
ATOM     17  H9  PEA d          44.273  22.927  50.706  0.00  0.00     0.075 H 
BRANCH  15  18
ATOM     18  N   PEA d          43.362  23.033  48.790  0.00  0.00    -0.079 N 
ATOM     19  H10 PEA d          43.517  22.425  48.002  0.00  0.00     0.274 HD
ATOM     20  H11 PEA d          43.174  23.967  48.462  0.00  0.00     0.274 HD
ATOM     21  H12 PEA d          42.574  22.699  49.323  0.00  0.00     0.274 HD
ENDBRANCH  15  18
ENDBRANCH  12  15
ENDBRANCH   1  12
TORSDOF 3
ENDMDL
MODEL 5
REMARK VINA RESULT:      -4.2      1.017      1.625
REMARK  3 active torsions:
REMARK  status: ('A' for Active; 'I' for Inactive)
REMARK    1  A    between atoms: C1'_1  and  C2_7 
REMARK    2  A    between atoms: C2_7  and  C1_8 
REMARK    3  A    between atoms: C1_8  and  N_9 
ROOT
ATOM      1  C1' PEA d          45.108  20.435  51.012  0.00  0.00    -0.057 A 
ATOM      2  C6' PEA d          45.510  20.736  49.723  0.00  0.00    -0.077 A 
ATOM      3  C5' PEA d          45.705  22.033  49.276  0.00  0.00    -0.082 A 
ATOM      4  C4' PEA d          45.484  23.107  50.126  0.00  0.00    -0.083 A 
ATOM      5  C3' PEA d          45.065  22.822  51.412  0.00  0.00    -0.082 A 
ATOM      6  C2' PEA d          44.884  21.527  51.837  0.00  0.00    -0.077 A 
ATOM      7  H1  PEA d          45.680  19.920  49.031  0.00  0.00     0.084 H 
ATOM      8  H2  PEA d          46.033  22.210  48.258  0.00  0.00     0.083 H 
ATOM      9  H3  PEA d          45.632  24.128  49.794  0.00  0.00     0.083 H 
ATOM     10  H4  PEA d          44.875  23.637  52.101  0.00  0.00     0.083 H 
ATOM     11  H5  PEA d          44.553  21.352  52.854  0.00  0.00     0.084 H 
ENDROOT
BRANCH   1  12
ATOM     12  C2  PEA d          44.946  19.098  51.433  0.00  0.00    -0.019 C 
ATOM     13  H6  PEA d          45.333  18.428  50.650  0.00  0.00     0.042 H 
ATOM     14  H7  PEA d          43.876  18.900  51.591  0.00  0.00     0.042 H 
BRANCH  12  15
ATOM     15  C1  PEA d          45.713  18.819  52.762  0.00  0.00     0.083 C 
ATOM     16  H8  PEA d          45.215  19.357  53.581  0.00  0.00     0.075 H 
ATOM     17  H9  PEA d          46.747  19.181  52.660  0.00  0.00     0.075 H 
BRANCH  15  18
ATOM     18  N   PEA d          45.739  17.360  53.085  0.00  0.00    -0.079 N 
ATOM     19  H10 PEA d          45.304  17.207  53.981  0.00  0.00     0.274 HD
ATOM     20  H11 PEA d          46.694  17.040  53.117  0.00  0.00     0.274 HD
ATOM     21  H12 PEA d          45.236  16.849  52.376  0.00  0.00     0.274 HD
ENDBRANCH  15  18
ENDBRANCH  12  15
ENDBRANCH   1  12
TORSDOF 3
ENDMDL
MODEL 6
REMARK VINA RESULT:      -3.9      2.040      2.665
REMARK  3 active torsions:
REMARK  status: ('A' for Active; 'I' for Inactive)
REMARK    1  A    between atoms: C1'_1  and  C2_7 
REMARK    2  A    between atoms: C2_7  and  C1_8 
REMARK    3  A    between atoms: C1_8  and  N_9 
ROOT
ATOM      1  C1' PEA d          44.671  21.114  51.099  0.00  0.00    -0.057 A 
ATOM      2  C6' PEA d          43.948  22.255  50.799  0.00  0.00    -0.077 A 
ATOM      3  C5' PEA d          44.053  23.430  51.526  0.00  0.00    -0.082 A 
ATOM      4  C4' PEA d          44.900  23.500  52.622  0.00  0.00    -0.083 A 
ATOM      5  C3' PEA d          45.617  22.362  52.944  0.00  0.00    -0.082 A 
ATOM      6  C2' PEA d          45.502  21.210  52.204  0.00  0.00    -0.077 A 
ATOM      7  H1  PEA d          43.267  22.229  49.955  0.00  0.00     0.084 H 
ATOM      8  H2  PEA d          43.471  24.298  51.239  0.00  0.00     0.083 H 
ATOM      9  H3  PEA d          44.997  24.411  53.203  0.00  0.00     0.083 H 
ATOM     10  H4  PEA d          46.284  22.380  53.799  0.00  0.00     0.083 H 
ATOM     11  H5  PEA d          46.083  20.342  52.496  0.00  0.00     0.084 H 
ENDROOT
BRANCH   1  12
ATOM     12  C2  PEA d          44.552  19.947  50.315  0.00  0.00    -0.019 C 
ATOM     13  H6  PEA d          45.031  20.122  49.339  0.00  0.00     0.042 H 
ATOM     14  H7  PEA d          43.485  19.723  50.166  0.00  0.00     0.042 H 
BRANCH  12  15
ATOM     15  C1  PEA d          45.234  18.724  51.001  0.00  0.00     0.083 C 
ATOM     16  H8  PEA d          45.870  19.085  51.822  0.00  0.00     0.075 H 
ATOM     17  H9  PEA d          45.855  18.199  50.259  0.00  0.00     0.075 H 
BRANCH  15  18
ATOM     18  N   PEA d          44.225  17.770  51.552  0.00  0.00    -0.079 N 
ATOM     19  H10 PEA d          44.018  17.064  50.863  0.00  0.00     0.274 HD
ATOM     20  H11 PEA d          43.381  18.270  51.783  0.00  0.00     0.274 HD
ATOM     21  H12 PEA d          44.594  17.332  52.381  0.00  0.00     0.274 HD
ENDBRANCH  15  18
ENDBRANCH  12  15
ENDBRANCH   1  12
TORSDOF 3
ENDMDL
MODEL 7
REMARK VINA RESULT:      -3.8      2.170      3.781
REMARK  3 active torsions:
REMARK  status: ('A' for Active; 'I' for Inactive)
REMARK    1  A    between atoms: C1'_1  and  C2_7 
REMARK    2  A    between atoms: C2_7  and  C1_8 
REMARK    3  A    between atoms: C1_8  and  N_9 
ROOT
ATOM      1  C1' PEA d          46.177  21.078  51.337  0.00  0.00    -0.057 A 
ATOM      2  C6' PEA d          45.206  20.975  50.357  0.00  0.00    -0.077 A 
ATOM      3  C5' PEA d          44.408  19.853  50.198  0.00  0.00    -0.082 A 
ATOM      4  C4' PEA d          44.570  18.757  51.032  0.00  0.00    -0.083 A 
ATOM      5  C3' PEA d          45.548  18.839  52.006  0.00  0.00    -0.082 A 
ATOM      6  C2' PEA d          46.324  19.964  52.150  0.00  0.00    -0.077 A 
ATOM      7  H1  PEA d          45.064  21.810  49.681  0.00  0.00     0.084 H 
ATOM      8  H2  PEA d          43.655  19.832  49.420  0.00  0.00     0.083 H 
ATOM      9  H3  PEA d          43.954  17.871  50.924  0.00  0.00     0.083 H 
ATOM     10  H4  PEA d          45.706  17.997  52.671  0.00  0.00     0.083 H 
ATOM     11  H5  PEA d          47.079  19.981  52.927  0.00  0.00     0.084 H 
ENDROOT
BRANCH   1  12
ATOM     12  C2  PEA d          46.950  22.250  51.480  0.00  0.00    -0.019 C 
ATOM     13  H6  PEA d          46.425  23.086  50.994  0.00  0.00     0.042 H 
ATOM     14  H7  PEA d          47.925  22.096  50.993  0.00  0.00     0.042 H 
BRANCH  12  15
ATOM     15  C1  PEA d          47.184  22.603  52.980  0.00  0.00     0.083 C 
ATOM     16  H8  PEA d          47.944  23.395  53.046  0.00  0.00     0.075 H 
ATOM     17  H9  PEA d          47.543  21.706  53.507  0.00  0.00     0.075 H 
BRANCH  15  18
ATOM     18  N   PEA d          45.928  23.081  53.635  0.00  0.00    -0.079 N 
ATOM     19  H10 PEA d          45.132  22.750  53.113  0.00  0.00     0.274 HD
ATOM     20  H11 PEA d          45.922  24.088  53.655  0.00  0.00     0.274 HD
ATOM     21  H12 PEA d          45.884  22.725  54.577  0.00  0.00     0.274 HD
ENDBRANCH  15  18
ENDBRANCH  12  15
ENDBRANCH   1  12
TORSDOF 3
ENDMDL
MODEL 8
REMARK VINA RESULT:      -3.8      2.177      3.487
REMARK  3 active torsions:
REMARK  status: ('A' for Active; 'I' for Inactive)
REMARK    1  A    between atoms: C1'_1  and  C2_7 
REMARK    2  A    between atoms: C2_7  and  C1_8 
REMARK    3  A    between atoms: C1_8  and  N_9 
ROOT
ATOM      1  C1' PEA d          46.192  21.090  51.237  0.00  0.00    -0.057 A 
ATOM      2  C6' PEA d          46.300  19.953  52.019  0.00  0.00    -0.077 A 
ATOM      3  C5' PEA d          45.496  18.838  51.846  0.00  0.00    -0.082 A 
ATOM      4  C4' PEA d          44.516  18.828  50.865  0.00  0.00    -0.083 A 
ATOM      5  C3' PEA d          44.385  19.964  50.087  0.00  0.00    -0.082 A 
ATOM      6  C2' PEA d          45.199  21.056  50.271  0.00  0.00    -0.077 A 
ATOM      7  H1  PEA d          47.049  19.935  52.803  0.00  0.00     0.084 H 
ATOM      8  H2  PEA d          45.633  17.970  52.481  0.00  0.00     0.083 H 
ATOM      9  H3  PEA d          43.878  17.964  50.714  0.00  0.00     0.083 H 
ATOM     10  H4  PEA d          43.625  19.992  49.315  0.00  0.00     0.083 H 
ATOM     11  H5  PEA d          45.058  21.924  49.637  0.00  0.00     0.084 H 
ENDROOT
BRANCH   1  12
ATOM     12  C2  PEA d          47.050  22.194  51.430  0.00  0.00    -0.019 C 
ATOM     13  H6  PEA d          46.721  23.020  50.782  0.00  0.00     0.042 H 
ATOM     14  H7  PEA d          48.076  21.901  51.160  0.00  0.00     0.042 H 
BRANCH  12  15
ATOM     15  C1  PEA d          47.037  22.677  52.912  0.00  0.00     0.083 C 
ATOM     16  H8  PEA d          47.758  23.501  53.025  0.00  0.00     0.075 H 
ATOM     17  H9  PEA d          47.331  21.841  53.563  0.00  0.00     0.075 H 
BRANCH  15  18
ATOM     18  N   PEA d          45.683  23.159  53.321  0.00  0.00    -0.079 N 
ATOM     19  H10 PEA d          44.977  22.593  52.877  0.00  0.00     0.274 HD
ATOM     20  H11 PEA d          45.569  24.119  53.039  0.00  0.00     0.274 HD
ATOM     21  H12 PEA d          45.589  23.088  54.322  0.00  0.00     0.274 HD
ENDBRANCH  15  18
ENDBRANCH  12  15
ENDBRANCH   1  12
TORSDOF 3
ENDMDL
MODEL 9
REMARK VINA RESULT:      -3.5      2.589      3.250
REMARK  3 active torsions:
REMARK  status: ('A' for Active; 'I' for Inactive)
REMARK    1  A    between atoms: C1'_1  and  C2_7 
REMARK    2  A    between atoms: C2_7  and  C1_8 
REMARK    3  A    between atoms: C1_8  and  N_9 
ROOT
ATOM      1  C1' PEA d          45.805  21.941  50.720  0.00  0.00    -0.057 A 
ATOM      2  C6' PEA d          47.061  22.085  51.284  0.00  0.00    -0.077 A 
ATOM      3  C5' PEA d          47.266  22.628  52.541  0.00  0.00    -0.082 A 
ATOM      4  C4' PEA d          46.191  23.074  53.295  0.00  0.00    -0.083 A 
ATOM      5  C3' PEA d          44.931  22.951  52.738  0.00  0.00    -0.082 A 
ATOM      6  C2' PEA d          44.749  22.403  51.491  0.00  0.00    -0.077 A 
ATOM      7  H1  PEA d          47.923  21.757  50.714  0.00  0.00     0.084 H 
ATOM      8  H2  PEA d          48.272  22.706  52.938  0.00  0.00     0.083 H 
ATOM      9  H3  PEA d          46.332  23.501  54.282  0.00  0.00     0.083 H 
ATOM     10  H4  PEA d          44.069  23.296  53.297  0.00  0.00     0.083 H 
ATOM     11  H5  PEA d          43.743  22.329  51.095  0.00  0.00     0.084 H 
ENDROOT
BRANCH   1  12
ATOM     12  C2  PEA d          45.639  21.357  49.446  0.00  0.00    -0.019 C 
ATOM     13  H6  PEA d          46.628  21.092  49.042  0.00  0.00     0.042 H 
ATOM     14  H7  PEA d          45.154  22.086  48.780  0.00  0.00     0.042 H 
BRANCH  12  15
ATOM     15  C1  PEA d          44.760  20.071  49.515  0.00  0.00     0.083 C 
ATOM     16  H8  PEA d          44.606  19.801  50.569  0.00  0.00     0.075 H 
ATOM     17  H9  PEA d          45.283  19.253  48.998  0.00  0.00     0.075 H 
BRANCH  15  18
ATOM     18  N   PEA d          43.429  20.281  48.868  0.00  0.00    -0.079 N 
ATOM     19  H10 PEA d          42.913  20.979  49.380  0.00  0.00     0.274 HD
ATOM     20  H11 PEA d          42.914  19.414  48.871  0.00  0.00     0.274 HD
ATOM     21  H12 PEA d          43.561  20.591  47.918  0.00  0.00     0.274 HD
ENDBRANCH  15  18
ENDBRANCH  12  15
ENDBRANCH   1  12
TORSDOF 3
ENDMDL
MODEL 10
REMARK VINA RESULT:      -2.2      2.745      3.477
REMARK  3 active torsions:
REMARK  status: ('A' for Active; 'I' for Inactive)
REMARK    1  A    between atoms: C1'_1  and  C2_7 
REMARK    2  A    between atoms: C2_7  and  C1_8 
REMARK    3  A    between atoms: C1_8  and  N_9 
ROOT
ATOM      1  C1' PEA d          45.255  21.097  51.574  0.00  0.00    -0.057 A 
ATOM      2  C6' PEA d          44.556  22.076  52.258  0.00  0.00    -0.077 A 
ATOM      3  C5' PEA d          45.170  23.008  53.079  0.00  0.00    -0.082 A 
ATOM      4  C4' PEA d          46.544  22.983  53.261  0.00  0.00    -0.083 A 
ATOM      5  C3' PEA d          47.254  21.999  52.598  0.00  0.00    -0.082 A 
ATOM      6  C2' PEA d          46.626  21.088  51.782  0.00  0.00    -0.077 A 
ATOM      7  H1  PEA d          43.479  22.115  52.146  0.00  0.00     0.084 H 
ATOM      8  H2  PEA d          44.573  23.761  53.581  0.00  0.00     0.083 H 
ATOM      9  H3  PEA d          47.042  23.705  53.899  0.00  0.00     0.083 H 
ATOM     10  H4  PEA d          48.330  21.946  52.724  0.00  0.00     0.083 H 
ATOM     11  H5  PEA d          47.225  20.334  51.284  0.00  0.00     0.084 H 
ENDROOT
BRANCH   1  12
ATOM     12  C2  PEA d          44.593  20.183  50.727  0.00  0.00    -0.019 C 
ATOM     13  H6  PEA d          43.750  19.735  51.274  0.00  0.00     0.042 H 
ATOM     14  H7  PEA d          45.300  19.394  50.431  0.00  0.00     0.042 H 
BRANCH  12  15
ATOM     15  C1  PEA d          44.050  20.882  49.444  0.00  0.00     0.083 C 
ATOM     16  H8  PEA d          43.350  20.202  48.936  0.00  0.00     0.075 H 
ATOM     17  H9  PEA d          44.893  21.106  48.774  0.00  0.00     0.075 H 
BRANCH  15  18
ATOM     18  N   PEA d          43.338  22.155  49.770  0.00  0.00    -0.079 N 
ATOM     19  H10 PEA d          43.010  22.121  50.722  0.00  0.00     0.274 HD
ATOM     20  H11 PEA d          42.554  22.271  49.149  0.00  0.00     0.274 HD
ATOM     21  H12 PEA d          43.972  22.932  49.661  0.00  0.00     0.274 HD
ENDBRANCH  15  18
ENDBRANCH  12  15
ENDBRANCH   1  12
TORSDOF 3
ENDMDL
