MODEL 1
REMARK VINA RESULT:      -9.0      0.000      0.000
REMARK  6 active torsions:
REMARK  status: ('A' for Active; 'I' for Inactive)
REMARK    1  A    between atoms: N16_6  and  C12_7 
REMARK    2  A    between atoms: C9_12  and  N7_13 
REMARK    3  A    between atoms: N7_13  and  C4_14 
REMARK    4  A    between atoms: C6_19  and  C15_20 
REMARK    5  A    between atoms: N25_24  and  C29_25 
REMARK    6  A    between atoms: C26_26  and  C27_27 
ROOT
ATOM      1  C12 Y8L d          21.913  25.536  28.899  0.00  0.00     0.030 A 
ATOM      2  C13 Y8L d          22.310  26.195  27.733  0.00  0.00    -0.055 A 
ATOM      3  C14 Y8L d          22.731  27.533  27.767  0.00  0.00    -0.054 A 
ATOM      4  C11 Y8L d          21.972  26.221  30.109  0.00  0.00    -0.055 A 
ATOM      5  C10 Y8L d          22.421  27.547  30.127  0.00  0.00    -0.054 A 
ATOM      6  C9  Y8L d          22.782  28.232  28.963  0.00  0.00     0.049 A 
ATOM      7  H11 Y8L d          22.294  25.665  26.788  0.00  0.00     0.087 H 
ATOM      8  H12 Y8L d          23.019  28.026  26.846  0.00  0.00     0.087 H 
ATOM      9  H13 Y8L d          21.674  25.732  31.030  0.00  0.00     0.087 H 
ATOM     10  H14 Y8L d          22.491  28.062  31.078  0.00  0.00     0.087 H 
ENDROOT
BRANCH   6  11
ATOM     11  N7  Y8L d          23.204  29.506  29.071  0.00  0.00    -0.188 N 
ATOM     12  H15 Y8L d          22.638  30.124  29.670  0.00  0.00     0.184 HD
BRANCH  11  13
ATOM     13  C4  Y8L d          24.280  30.068  28.488  0.00  0.00     0.727 A 
ATOM     14  N5  Y8L d          25.200  29.397  27.762  0.00  0.00    -0.061 NA
ATOM     15  C6  Y8L d          26.267  30.014  27.215  0.00  0.00     0.096 A 
ATOM     16  C1  Y8L d          26.358  31.402  27.329  0.00  0.00    -0.036 A 
ATOM     17  C2  Y8L d          25.381  32.080  28.035  0.00  0.00     0.023 A 
ATOM     18  H17 Y8L d          27.181  31.939  26.872  0.00  0.00     0.089 H 
ATOM     19  N3  Y8L d          24.377  31.408  28.578  0.00  0.00    -0.075 NA
ATOM     20  H16 Y8L d          25.437  33.157  28.145  0.00  0.00     0.115 H 
BRANCH  15  21
ATOM     21  C15 Y8L d          27.213  29.331  26.433  0.00  0.00     0.062 A 
ATOM     22  S23 Y8L d          28.525  30.028  25.564  0.00  0.00    -0.025 SA
ATOM     23  C24 Y8L d          28.989  28.561  24.857  0.00  0.00     0.291 A 
ATOM     24  O28 Y8L d          29.954  28.394  24.114  0.00  0.00    -0.259 OA
ATOM     25  N25 Y8L d          28.196  27.580  25.294  0.00  0.00    -0.316 N 
ATOM     26  C26 Y8L d          27.226  27.957  26.138  0.00  0.00     0.030 A 
BRANCH  25  27
ATOM     27  C29 Y8L d          28.386  26.166  24.864  0.00  0.00    -0.011 C 
ATOM     28  H18 Y8L d          29.393  25.828  25.149  0.00  0.00     0.057 H 
ATOM     29  H19 Y8L d          28.271  26.096  23.772  0.00  0.00     0.057 H 
ATOM     30  H20 Y8L d          27.634  25.530  25.353  0.00  0.00     0.057 H 
ENDBRANCH  25  27
BRANCH  26  31
ATOM     31  C27 Y8L d          26.243  26.940  26.725  0.00  0.00    -0.036 C 
ATOM     32  H21 Y8L d          26.731  26.388  27.542  0.00  0.00     0.035 H 
ATOM     33  H22 Y8L d          25.933  26.235  25.941  0.00  0.00     0.035 H 
ATOM     34  H23 Y8L d          25.360  27.467  27.116  0.00  0.00     0.035 H 
ENDBRANCH  26  31
ENDBRANCH  15  21
ENDBRANCH  11  13
ENDBRANCH   6  11
BRANCH   1  35
ATOM     35  N16 Y8L d          21.442  24.206  28.856  0.00  0.00    -0.378 N 
ATOM     36  C17 Y8L d          20.637  23.777  27.695  0.00  0.00     0.018 C 
ATOM     37  C18 Y8L d          19.831  22.479  27.892  0.00  0.00     0.096 C 
ATOM     38  H1  Y8L d          19.929  24.584  27.457  0.00  0.00     0.066 H 
ATOM     39  H2  Y8L d          21.320  23.626  26.846  0.00  0.00     0.066 H 
ATOM     40  N19 Y8L d          20.022  21.889  29.225  0.00  0.00    -0.072 N 
ATOM     41  H3  Y8L d          20.150  21.748  27.134  0.00  0.00     0.078 H 
ATOM     42  H4  Y8L d          18.762  22.705  27.756  0.00  0.00     0.078 H 
ATOM     43  C20 Y8L d          21.451  21.822  29.498  0.00  0.00     0.096 C 
ATOM     44  H5  Y8L d          19.628  20.961  29.247  0.00  0.00     0.277 HD
ATOM     45  H6  Y8L d          19.569  22.463  29.919  0.00  0.00     0.277 HD
ATOM     46  C21 Y8L d          21.932  23.231  29.847  0.00  0.00     0.018 C 
ATOM     47  H7  Y8L d          21.984  21.455  28.609  0.00  0.00     0.078 H 
ATOM     48  H8  Y8L d          21.638  21.144  30.345  0.00  0.00     0.078 H 
ATOM     49  H9  Y8L d          23.032  23.246  29.854  0.00  0.00     0.066 H 
ATOM     50  H10 Y8L d          21.555  23.506  30.843  0.00  0.00     0.066 H 
ENDBRANCH   1  35
TORSDOF 6
ENDMDL
MODEL 2
REMARK VINA RESULT:      -8.2      4.005      8.400
REMARK  6 active torsions:
REMARK  status: ('A' for Active; 'I' for Inactive)
REMARK    1  A    between atoms: N16_6  and  C12_7 
REMARK    2  A    between atoms: C9_12  and  N7_13 
REMARK    3  A    between atoms: N7_13  and  C4_14 
REMARK    4  A    between atoms: C6_19  and  C15_20 
REMARK    5  A    between atoms: N25_24  and  C29_25 
REMARK    6  A    between atoms: C26_26  and  C27_27 
ROOT
ATOM      1  C12 Y8L d          25.539  29.053  27.315  0.00  0.00     0.030 A 
ATOM      2  C13 Y8L d          24.702  29.684  28.239  0.00  0.00    -0.055 A 
ATOM      3  C14 Y8L d          23.531  29.063  28.694  0.00  0.00    -0.054 A 
ATOM      4  C11 Y8L d          25.208  27.775  26.875  0.00  0.00    -0.055 A 
ATOM      5  C10 Y8L d          24.048  27.160  27.362  0.00  0.00    -0.054 A 
ATOM      6  C9  Y8L d          23.180  27.795  28.254  0.00  0.00     0.049 A 
ATOM      7  H11 Y8L d          24.963  30.669  28.610  0.00  0.00     0.087 H 
ATOM      8  H12 Y8L d          22.890  29.580  29.399  0.00  0.00     0.087 H 
ATOM      9  H13 Y8L d          25.843  27.261  26.162  0.00  0.00     0.087 H 
ATOM     10  H14 Y8L d          23.815  26.153  27.035  0.00  0.00     0.087 H 
ENDROOT
BRANCH   6  11
ATOM     11  N7  Y8L d          22.088  27.130  28.674  0.00  0.00    -0.188 N 
ATOM     12  H15 Y8L d          21.283  27.709  28.955  0.00  0.00     0.184 HD
BRANCH  11  13
ATOM     13  C4  Y8L d          21.923  25.797  28.769  0.00  0.00     0.727 A 
ATOM     14  N5  Y8L d          21.572  24.990  27.745  0.00  0.00    -0.061 NA
ATOM     15  C6  Y8L d          21.407  23.661  27.907  0.00  0.00     0.096 A 
ATOM     16  C1  Y8L d          21.703  23.105  29.152  0.00  0.00    -0.036 A 
ATOM     17  C2  Y8L d          22.108  23.940  30.178  0.00  0.00     0.023 A 
ATOM     18  H17 Y8L d          21.618  22.036  29.312  0.00  0.00     0.089 H 
ATOM     19  N3  Y8L d          22.217  25.242  29.960  0.00  0.00    -0.075 NA
ATOM     20  H16 Y8L d          22.335  23.531  31.156  0.00  0.00     0.115 H 
BRANCH  15  21
ATOM     21  C15 Y8L d          21.071  22.808  26.842  0.00  0.00     0.062 A 
ATOM     22  S23 Y8L d          19.490  22.302  26.389  0.00  0.00    -0.025 SA
ATOM     23  C24 Y8L d          20.045  21.251  25.183  0.00  0.00     0.291 A 
ATOM     24  O28 Y8L d          19.340  20.585  24.429  0.00  0.00    -0.259 OA
ATOM     25  N25 Y8L d          21.377  21.313  25.110  0.00  0.00    -0.316 N 
ATOM     26  C26 Y8L d          21.964  22.135  25.991  0.00  0.00     0.030 A 
BRANCH  25  27
ATOM     27  C29 Y8L d          22.148  20.516  24.114  0.00  0.00    -0.011 C 
ATOM     28  H18 Y8L d          21.625  19.568  23.920  0.00  0.00     0.057 H 
ATOM     29  H19 Y8L d          23.153  20.306  24.511  0.00  0.00     0.057 H 
ATOM     30  H20 Y8L d          22.235  21.085  23.177  0.00  0.00     0.057 H 
ENDBRANCH  25  27
BRANCH  26  31
ATOM     31  C27 Y8L d          23.484  22.313  26.022  0.00  0.00    -0.036 C 
ATOM     32  H21 Y8L d          23.805  22.550  27.047  0.00  0.00     0.035 H 
ATOM     33  H22 Y8L d          23.771  23.135  25.350  0.00  0.00     0.035 H 
ATOM     34  H23 Y8L d          23.970  21.383  25.692  0.00  0.00     0.035 H 
ENDBRANCH  26  31
ENDBRANCH  15  21
ENDBRANCH  11  13
ENDBRANCH   6  11
BRANCH   1  35
ATOM     35  N16 Y8L d          26.692  29.701  26.819  0.00  0.00    -0.378 N 
ATOM     36  C17 Y8L d          27.538  28.987  25.842  0.00  0.00     0.018 C 
ATOM     37  C18 Y8L d          28.956  29.558  25.653  0.00  0.00     0.096 C 
ATOM     38  H1  Y8L d          27.634  27.943  26.174  0.00  0.00     0.066 H 
ATOM     39  H2  Y8L d          27.029  29.016  24.867  0.00  0.00     0.066 H 
ATOM     40  N19 Y8L d          29.209  30.739  26.493  0.00  0.00    -0.072 N 
ATOM     41  H3  Y8L d          29.084  29.842  24.598  0.00  0.00     0.078 H 
ATOM     42  H4  Y8L d          29.687  28.777  25.913  0.00  0.00     0.078 H 
ATOM     43  C20 Y8L d          28.100  31.668  26.326  0.00  0.00     0.096 C 
ATOM     44  H5  Y8L d          30.069  31.181  26.208  0.00  0.00     0.277 HD
ATOM     45  H6  Y8L d          29.278  30.460  27.459  0.00  0.00     0.277 HD
ATOM     46  C21 Y8L d          26.908  31.127  27.117  0.00  0.00     0.018 C 
ATOM     47  H7  Y8L d          27.836  31.747  25.262  0.00  0.00     0.078 H 
ATOM     48  H8  Y8L d          28.383  32.660  26.709  0.00  0.00     0.078 H 
ATOM     49  H9  Y8L d          26.006  31.694  26.844  0.00  0.00     0.066 H 
ATOM     50  H10 Y8L d          27.104  31.246  28.193  0.00  0.00     0.066 H 
ENDBRANCH   1  35
TORSDOF 6
ENDMDL
MODEL 3
REMARK VINA RESULT:      -8.1      3.604      7.935
REMARK  6 active torsions:
REMARK  status: ('A' for Active; 'I' for Inactive)
REMARK    1  A    between atoms: N16_6  and  C12_7 
REMARK    2  A    between atoms: C9_12  and  N7_13 
REMARK    3  A    between atoms: N7_13  and  C4_14 
REMARK    4  A    between atoms: C6_19  and  C15_20 
REMARK    5  A    between atoms: N25_24  and  C29_25 
REMARK    6  A    between atoms: C26_26  and  C27_27 
ROOT
ATOM      1  C12 Y8L d          26.385  30.169  27.050  0.00  0.00     0.030 A 
ATOM      2  C13 Y8L d          25.895  28.869  26.907  0.00  0.00    -0.055 A 
ATOM      3  C14 Y8L d          24.720  28.464  27.556  0.00  0.00    -0.054 A 
ATOM      4  C11 Y8L d          25.666  31.075  27.825  0.00  0.00    -0.055 A 
ATOM      5  C10 Y8L d          24.480  30.660  28.444  0.00  0.00    -0.054 A 
ATOM      6  C9  Y8L d          24.001  29.351  28.343  0.00  0.00     0.049 A 
ATOM      7  H11 Y8L d          26.432  28.162  26.284  0.00  0.00     0.087 H 
ATOM      8  H12 Y8L d          24.370  27.445  27.442  0.00  0.00     0.087 H 
ATOM      9  H13 Y8L d          26.021  32.092  27.949  0.00  0.00     0.087 H 
ATOM     10  H14 Y8L d          23.913  31.380  29.022  0.00  0.00     0.087 H 
ENDROOT
BRANCH   6  11
ATOM     11  N7  Y8L d          22.850  29.037  28.968  0.00  0.00    -0.188 N 
ATOM     12  H15 Y8L d          22.269  29.830  29.277  0.00  0.00     0.184 HD
BRANCH  11  13
ATOM     13  C4  Y8L d          22.369  27.809  29.238  0.00  0.00     0.727 A 
ATOM     14  N5  Y8L d          22.440  26.753  28.398  0.00  0.00    -0.061 NA
ATOM     15  C6  Y8L d          21.924  25.549  28.719  0.00  0.00     0.096 A 
ATOM     16  C1  Y8L d          21.392  25.378  29.998  0.00  0.00    -0.036 A 
ATOM     17  C2  Y8L d          21.371  26.457  30.863  0.00  0.00     0.023 A 
ATOM     18  H17 Y8L d          21.001  24.415  30.307  0.00  0.00     0.089 H 
ATOM     19  N3  Y8L d          21.863  27.622  30.472  0.00  0.00    -0.075 NA
ATOM     20  H16 Y8L d          20.954  26.349  31.858  0.00  0.00     0.115 H 
BRANCH  15  21
ATOM     21  C15 Y8L d          22.019  24.438  27.866  0.00  0.00     0.062 A 
ATOM     22  S23 Y8L d          21.246  22.914  28.072  0.00  0.00    -0.025 SA
ATOM     23  C24 Y8L d          22.010  22.213  26.734  0.00  0.00     0.291 A 
ATOM     24  O28 Y8L d          21.823  21.073  26.314  0.00  0.00    -0.259 OA
ATOM     25  N25 Y8L d          22.793  23.116  26.139  0.00  0.00    -0.316 N 
ATOM     26  C26 Y8L d          22.828  24.321  26.723  0.00  0.00     0.030 A 
BRANCH  25  27
ATOM     27  C29 Y8L d          23.572  22.793  24.910  0.00  0.00    -0.011 C 
ATOM     28  H18 Y8L d          23.022  23.142  24.024  0.00  0.00     0.057 H 
ATOM     29  H19 Y8L d          23.718  21.704  24.844  0.00  0.00     0.057 H 
ATOM     30  H20 Y8L d          24.551  23.292  24.954  0.00  0.00     0.057 H 
ENDBRANCH  25  27
BRANCH  26  31
ATOM     31  C27 Y8L d          23.679  25.458  26.150  0.00  0.00    -0.036 C 
ATOM     32  H21 Y8L d          24.513  25.673  26.833  0.00  0.00     0.035 H 
ATOM     33  H22 Y8L d          23.058  26.359  26.036  0.00  0.00     0.035 H 
ATOM     34  H23 Y8L d          24.076  25.161  25.168  0.00  0.00     0.035 H 
ENDBRANCH  26  31
ENDBRANCH  15  21
ENDBRANCH  11  13
ENDBRANCH   6  11
BRANCH   1  35
ATOM     35  N16 Y8L d          27.595  30.561  26.437  0.00  0.00    -0.378 N 
ATOM     36  C17 Y8L d          27.856  32.002  26.245  0.00  0.00     0.018 C 
ATOM     37  C18 Y8L d          28.967  32.344  25.234  0.00  0.00     0.096 C 
ATOM     38  H1  Y8L d          26.925  32.472  25.898  0.00  0.00     0.066 H 
ATOM     39  H2  Y8L d          28.141  32.428  27.218  0.00  0.00     0.066 H 
ATOM     40  N19 Y8L d          29.582  31.147  24.640  0.00  0.00    -0.072 N 
ATOM     41  H3  Y8L d          29.748  32.921  25.751  0.00  0.00     0.078 H 
ATOM     42  H4  Y8L d          28.533  32.955  24.428  0.00  0.00     0.078 H 
ATOM     43  C20 Y8L d          29.932  30.228  25.714  0.00  0.00     0.096 C 
ATOM     44  H5  Y8L d          30.412  31.408  24.131  0.00  0.00     0.277 HD
ATOM     45  H6  Y8L d          28.928  30.705  24.012  0.00  0.00     0.277 HD
ATOM     46  C21 Y8L d          28.647  29.557  26.199  0.00  0.00     0.018 C 
ATOM     47  H7  Y8L d          30.399  30.782  26.541  0.00  0.00     0.078 H 
ATOM     48  H8  Y8L d          30.633  29.467  25.340  0.00  0.00     0.078 H 
ATOM     49  H9  Y8L d          28.852  29.020  27.137  0.00  0.00     0.066 H 
ATOM     50  H10 Y8L d          28.301  28.844  25.436  0.00  0.00     0.066 H 
ENDBRANCH   1  35
TORSDOF 6
ENDMDL
MODEL 4
REMARK VINA RESULT:      -7.2      4.239      8.898
REMARK  6 active torsions:
REMARK  status: ('A' for Active; 'I' for Inactive)
REMARK    1  A    between atoms: N16_6  and  C12_7 
REMARK    2  A    between atoms: C9_12  and  N7_13 
REMARK    3  A    between atoms: N7_13  and  C4_14 
REMARK    4  A    between atoms: C6_19  and  C15_20 
REMARK    5  A    between atoms: N25_24  and  C29_25 
REMARK    6  A    between atoms: C26_26  and  C27_27 
ROOT
ATOM      1  C12 Y8L d          26.307  28.014  25.938  0.00  0.00     0.030 A 
ATOM      2  C13 Y8L d          27.342  27.086  25.803  0.00  0.00    -0.055 A 
ATOM      3  C14 Y8L d          27.084  25.772  25.386  0.00  0.00    -0.054 A 
ATOM      4  C11 Y8L d          25.010  27.623  25.618  0.00  0.00    -0.055 A 
ATOM      5  C10 Y8L d          24.776  26.315  25.177  0.00  0.00    -0.054 A 
ATOM      6  C9  Y8L d          25.795  25.364  25.077  0.00  0.00     0.049 A 
ATOM      7  H11 Y8L d          28.360  27.386  26.024  0.00  0.00     0.087 H 
ATOM      8  H12 Y8L d          27.902  25.067  25.304  0.00  0.00     0.087 H 
ATOM      9  H13 Y8L d          24.189  28.325  25.710  0.00  0.00     0.087 H 
ATOM     10  H14 Y8L d          23.767  26.029  24.903  0.00  0.00     0.087 H 
ENDROOT
BRANCH   6  11
ATOM     11  N7  Y8L d          25.482  24.129  24.642  0.00  0.00    -0.188 N 
ATOM     12  H15 Y8L d          26.144  23.699  23.979  0.00  0.00     0.184 HD
BRANCH  11  13
ATOM     13  C4  Y8L d          24.407  23.389  24.971  0.00  0.00     0.727 A 
ATOM     14  N5  Y8L d          23.609  23.621  26.036  0.00  0.00    -0.061 NA
ATOM     15  C6  Y8L d          22.553  22.833  26.322  0.00  0.00     0.096 A 
ATOM     16  C1  Y8L d          22.230  21.809  25.430  0.00  0.00    -0.036 A 
ATOM     17  C2  Y8L d          23.030  21.616  24.318  0.00  0.00     0.023 A 
ATOM     18  H17 Y8L d          21.367  21.177  25.606  0.00  0.00     0.089 H 
ATOM     19  N3  Y8L d          24.073  22.405  24.114  0.00  0.00    -0.075 NA
ATOM     20  H16 Y8L d          22.803  20.821  23.616  0.00  0.00     0.115 H 
BRANCH  15  21
ATOM     21  C15 Y8L d          21.700  23.083  27.410  0.00  0.00     0.062 A 
ATOM     22  S23 Y8L d          20.839  21.912  28.332  0.00  0.00    -0.025 SA
ATOM     23  C24 Y8L d          20.023  23.071  29.259  0.00  0.00     0.291 A 
ATOM     24  O28 Y8L d          19.242  22.837  30.179  0.00  0.00    -0.259 OA
ATOM     25  N25 Y8L d          20.419  24.294  28.900  0.00  0.00    -0.316 N 
ATOM     26  C26 Y8L d          21.315  24.340  27.905  0.00  0.00     0.030 A 
BRANCH  25  27
ATOM     27  C29 Y8L d          19.892  25.518  29.568  0.00  0.00    -0.011 C 
ATOM     28  H18 Y8L d          20.424  26.402  29.186  0.00  0.00     0.057 H 
ATOM     29  H19 Y8L d          20.047  25.439  30.654  0.00  0.00     0.057 H 
ATOM     30  H20 Y8L d          18.818  25.617  29.356  0.00  0.00     0.057 H 
ENDBRANCH  25  27
BRANCH  26  31
ATOM     31  C27 Y8L d          21.865  25.674  27.391  0.00  0.00    -0.036 C 
ATOM     32  H21 Y8L d          22.699  25.484  26.700  0.00  0.00     0.035 H 
ATOM     33  H22 Y8L d          22.222  26.275  28.240  0.00  0.00     0.035 H 
ATOM     34  H23 Y8L d          21.069  26.220  26.863  0.00  0.00     0.035 H 
ENDBRANCH  26  31
ENDBRANCH  15  21
ENDBRANCH  11  13
ENDBRANCH   6  11
BRANCH   1  35
ATOM     35  N16 Y8L d          26.561  29.322  26.407  0.00  0.00    -0.378 N 
ATOM     36  C17 Y8L d          25.717  29.860  27.492  0.00  0.00     0.018 C 
ATOM     37  C18 Y8L d          25.770  31.389  27.675  0.00  0.00     0.096 C 
ATOM     38  H1  Y8L d          24.675  29.579  27.283  0.00  0.00     0.066 H 
ATOM     39  H2  Y8L d          26.040  29.395  28.436  0.00  0.00     0.066 H 
ATOM     40  N19 Y8L d          26.677  32.044  26.720  0.00  0.00    -0.072 N 
ATOM     41  H3  Y8L d          26.115  31.610  28.696  0.00  0.00     0.078 H 
ATOM     42  H4  Y8L d          24.757  31.795  27.535  0.00  0.00     0.078 H 
ATOM     43  C20 Y8L d          27.950  31.336  26.735  0.00  0.00     0.096 C 
ATOM     44  H5  Y8L d          26.818  33.005  26.989  0.00  0.00     0.277 HD
ATOM     45  H6  Y8L d          26.278  32.009  25.795  0.00  0.00     0.277 HD
ATOM     46  C21 Y8L d          27.773  30.030  25.960  0.00  0.00     0.018 C 
ATOM     47  H7  Y8L d          28.243  31.118  27.772  0.00  0.00     0.078 H 
ATOM     48  H8  Y8L d          28.725  31.953  26.256  0.00  0.00     0.078 H 
ATOM     49  H9  Y8L d          28.650  29.387  26.131  0.00  0.00     0.066 H 
ATOM     50  H10 Y8L d          27.686  30.255  24.887  0.00  0.00     0.066 H 
ENDBRANCH   1  35
TORSDOF 6
ENDMDL
MODEL 5
REMARK VINA RESULT:      -7.2      2.285      4.284
REMARK  6 active torsions:
REMARK  status: ('A' for Active; 'I' for Inactive)
REMARK    1  A    between atoms: N16_6  and  C12_7 
REMARK    2  A    between atoms: C9_12  and  N7_13 
REMARK    3  A    between atoms: N7_13  and  C4_14 
REMARK    4  A    between atoms: C6_19  and  C15_20 
REMARK    5  A    between atoms: N25_24  and  C29_25 
REMARK    6  A    between atoms: C26_26  and  C27_27 
ROOT
ATOM      1  C12 Y8L d          21.664  23.771  27.606  0.00  0.00     0.030 A 
ATOM      2  C13 Y8L d          22.188  22.798  26.752  0.00  0.00    -0.055 A 
ATOM      3  C14 Y8L d          23.129  23.133  25.767  0.00  0.00    -0.054 A 
ATOM      4  C11 Y8L d          22.117  25.081  27.489  0.00  0.00    -0.055 A 
ATOM      5  C10 Y8L d          23.077  25.391  26.518  0.00  0.00    -0.054 A 
ATOM      6  C9  Y8L d          23.580  24.437  25.629  0.00  0.00     0.049 A 
ATOM      7  H11 Y8L d          21.863  21.769  26.851  0.00  0.00     0.087 H 
ATOM      8  H12 Y8L d          23.509  22.363  25.107  0.00  0.00     0.087 H 
ATOM      9  H13 Y8L d          21.730  25.855  28.143  0.00  0.00     0.087 H 
ATOM     10  H14 Y8L d          23.445  26.409  26.454  0.00  0.00     0.087 H 
ENDROOT
BRANCH   6  11
ATOM     11  N7  Y8L d          24.503  24.821  24.727  0.00  0.00    -0.188 N 
ATOM     12  H15 Y8L d          24.395  24.440  23.776  0.00  0.00     0.184 HD
BRANCH  11  13
ATOM     13  C4  Y8L d          25.552  25.643  24.923  0.00  0.00     0.727 A 
ATOM     14  N5  Y8L d          25.464  26.901  25.404  0.00  0.00    -0.061 NA
ATOM     15  C6  Y8L d          26.551  27.683  25.563  0.00  0.00     0.096 A 
ATOM     16  C1  Y8L d          27.807  27.129  25.309  0.00  0.00    -0.036 A 
ATOM     17  C2  Y8L d          27.882  25.822  24.862  0.00  0.00     0.023 A 
ATOM     18  H17 Y8L d          28.707  27.713  25.460  0.00  0.00     0.089 H 
ATOM     19  N3  Y8L d          26.772  25.120  24.694  0.00  0.00    -0.075 NA
ATOM     20  H16 Y8L d          28.846  25.374  24.650  0.00  0.00     0.115 H 
BRANCH  15  21
ATOM     21  C15 Y8L d          26.474  28.983  26.091  0.00  0.00     0.062 A 
ATOM     22  S23 Y8L d          27.429  30.338  25.630  0.00  0.00    -0.025 SA
ATOM     23  C24 Y8L d          26.778  31.350  26.822  0.00  0.00     0.291 A 
ATOM     24  O28 Y8L d          27.051  32.537  26.985  0.00  0.00    -0.259 OA
ATOM     25  N25 Y8L d          25.849  30.688  27.516  0.00  0.00    -0.316 N 
ATOM     26  C26 Y8L d          25.663  29.411  27.155  0.00  0.00     0.030 A 
BRANCH  25  27
ATOM     27  C29 Y8L d          25.080  31.336  28.616  0.00  0.00    -0.011 C 
ATOM     28  H18 Y8L d          24.848  32.375  28.339  0.00  0.00     0.057 H 
ATOM     29  H19 Y8L d          25.680  31.327  29.538  0.00  0.00     0.057 H 
ATOM     30  H20 Y8L d          24.143  30.784  28.783  0.00  0.00     0.057 H 
ENDBRANCH  25  27
BRANCH  26  31
ATOM     31  C27 Y8L d          24.627  28.529  27.858  0.00  0.00    -0.036 C 
ATOM     32  H21 Y8L d          24.340  28.991  28.814  0.00  0.00     0.035 H 
ATOM     33  H22 Y8L d          25.059  27.535  28.047  0.00  0.00     0.035 H 
ATOM     34  H23 Y8L d          23.737  28.427  27.219  0.00  0.00     0.035 H 
ENDBRANCH  26  31
ENDBRANCH  15  21
ENDBRANCH  11  13
ENDBRANCH   6  11
BRANCH   1  35
ATOM     35  N16 Y8L d          20.679  23.442  28.564  0.00  0.00    -0.378 N 
ATOM     36  C17 Y8L d          19.880  24.531  29.160  0.00  0.00     0.018 C 
ATOM     37  C18 Y8L d          19.130  24.170  30.455  0.00  0.00     0.096 C 
ATOM     38  H1  Y8L d          20.560  25.367  29.383  0.00  0.00     0.066 H 
ATOM     39  H2  Y8L d          19.136  24.853  28.416  0.00  0.00     0.066 H 
ATOM     40  N19 Y8L d          19.345  22.773  30.864  0.00  0.00    -0.072 N 
ATOM     41  H3  Y8L d          18.053  24.328  30.295  0.00  0.00     0.078 H 
ATOM     42  H4  Y8L d          19.481  24.831  31.262  0.00  0.00     0.078 H 
ATOM     43  C20 Y8L d          19.114  21.915  29.710  0.00  0.00     0.096 C 
ATOM     44  H5  Y8L d          18.701  22.531  31.602  0.00  0.00     0.277 HD
ATOM     45  H6  Y8L d          20.291  22.656  31.192  0.00  0.00     0.277 HD
ATOM     46  C21 Y8L d          20.327  22.028  28.787  0.00  0.00     0.018 C 
ATOM     47  H7  Y8L d          18.209  22.241  29.178  0.00  0.00     0.078 H 
ATOM     48  H8  Y8L d          18.991  20.872  30.039  0.00  0.00     0.078 H 
ATOM     49  H9  Y8L d          20.091  21.558  27.821  0.00  0.00     0.066 H 
ATOM     50  H10 Y8L d          21.182  21.512  29.248  0.00  0.00     0.066 H 
ENDBRANCH   1  35
TORSDOF 6
ENDMDL
MODEL 6
REMARK VINA RESULT:      -7.1      2.587      4.333
REMARK  6 active torsions:
REMARK  status: ('A' for Active; 'I' for Inactive)
REMARK    1  A    between atoms: N16_6  and  C12_7 
REMARK    2  A    between atoms: C9_12  and  N7_13 
REMARK    3  A    between atoms: N7_13  and  C4_14 
REMARK    4  A    between atoms: C6_19  and  C15_20 
REMARK    5  A    between atoms: N25_24  and  C29_25 
REMARK    6  A    between atoms: C26_26  and  C27_27 
ROOT
ATOM      1  C12 Y8L d          21.751  24.131  27.581  0.00  0.00     0.030 A 
ATOM      2  C13 Y8L d          22.290  23.128  26.772  0.00  0.00    -0.055 A 
ATOM      3  C14 Y8L d          23.238  23.429  25.784  0.00  0.00    -0.054 A 
ATOM      4  C11 Y8L d          22.196  25.439  27.414  0.00  0.00    -0.055 A 
ATOM      5  C10 Y8L d          23.164  25.715  26.440  0.00  0.00    -0.054 A 
ATOM      6  C9  Y8L d          23.681  24.729  25.596  0.00  0.00     0.049 A 
ATOM      7  H11 Y8L d          21.972  22.101  26.911  0.00  0.00     0.087 H 
ATOM      8  H12 Y8L d          23.630  22.634  25.159  0.00  0.00     0.087 H 
ATOM      9  H13 Y8L d          21.798  26.236  28.032  0.00  0.00     0.087 H 
ATOM     10  H14 Y8L d          23.525  26.732  26.337  0.00  0.00     0.087 H 
ENDROOT
BRANCH   6  11
ATOM     11  N7  Y8L d          24.611  25.082  24.688  0.00  0.00    -0.188 N 
ATOM     12  H15 Y8L d          24.461  24.739  23.727  0.00  0.00     0.184 HD
BRANCH  11  13
ATOM     13  C4  Y8L d          25.712  25.830  24.886  0.00  0.00     0.727 A 
ATOM     14  N5  Y8L d          25.710  27.088  25.376  0.00  0.00    -0.061 NA
ATOM     15  C6  Y8L d          26.848  27.794  25.538  0.00  0.00     0.096 A 
ATOM     16  C1  Y8L d          28.063  27.159  25.278  0.00  0.00    -0.036 A 
ATOM     17  C2  Y8L d          28.049  25.852  24.822  0.00  0.00     0.023 A 
ATOM     18  H17 Y8L d          29.001  27.680  25.431  0.00  0.00     0.089 H 
ATOM     19  N3  Y8L d          26.894  25.228  24.651  0.00  0.00    -0.075 NA
ATOM     20  H16 Y8L d          28.981  25.342  24.605  0.00  0.00     0.115 H 
BRANCH  15  21
ATOM     21  C15 Y8L d          26.859  29.092  26.075  0.00  0.00     0.062 A 
ATOM     22  S23 Y8L d          25.829  29.702  27.313  0.00  0.00    -0.025 SA
ATOM     23  C24 Y8L d          26.433  31.280  27.199  0.00  0.00     0.291 A 
ATOM     24  O28 Y8L d          26.098  32.230  27.902  0.00  0.00    -0.259 OA
ATOM     25  N25 Y8L d          27.401  31.327  26.281  0.00  0.00    -0.316 N 
ATOM     26  C26 Y8L d          27.653  30.171  25.651  0.00  0.00     0.030 A 
BRANCH  25  27
ATOM     27  C29 Y8L d          28.141  32.585  25.983  0.00  0.00    -0.011 C 
ATOM     28  H18 Y8L d          29.210  32.360  25.856  0.00  0.00     0.057 H 
ATOM     29  H19 Y8L d          28.013  33.292  26.817  0.00  0.00     0.057 H 
ATOM     30  H20 Y8L d          27.748  33.032  25.059  0.00  0.00     0.057 H 
ENDBRANCH  25  27
BRANCH  26  31
ATOM     31  C27 Y8L d          28.739  30.071  24.577  0.00  0.00    -0.036 C 
ATOM     32  H21 Y8L d          29.181  29.065  24.594  0.00  0.00     0.035 H 
ATOM     33  H22 Y8L d          29.522  30.818  24.776  0.00  0.00     0.035 H 
ATOM     34  H23 Y8L d          28.296  30.260  23.588  0.00  0.00     0.035 H 
ENDBRANCH  26  31
ENDBRANCH  15  21
ENDBRANCH  11  13
ENDBRANCH   6  11
BRANCH   1  35
ATOM     35  N16 Y8L d          20.760  23.834  28.542  0.00  0.00    -0.378 N 
ATOM     36  C17 Y8L d          19.890  24.927  29.022  0.00  0.00     0.018 C 
ATOM     37  C18 Y8L d          19.126  24.640  30.328  0.00  0.00     0.096 C 
ATOM     38  H1  Y8L d          20.520  25.814  29.185  0.00  0.00     0.066 H 
ATOM     39  H2  Y8L d          19.151  25.142  28.236  0.00  0.00     0.066 H 
ATOM     40  N19 Y8L d          19.401  23.299  30.863  0.00  0.00    -0.072 N 
ATOM     41  H3  Y8L d          18.047  24.725  30.130  0.00  0.00     0.078 H 
ATOM     42  H4  Y8L d          19.421  25.388  31.080  0.00  0.00     0.078 H 
ATOM     43  C20 Y8L d          19.246  22.332  29.785  0.00  0.00     0.096 C 
ATOM     44  H5  Y8L d          18.752  23.088  31.605  0.00  0.00     0.277 HD
ATOM     45  H6  Y8L d          20.343  23.262  31.221  0.00  0.00     0.277 HD
ATOM     46  C21 Y8L d          20.476  22.429  28.882  0.00  0.00     0.018 C 
ATOM     47  H7  Y8L d          18.340  22.561  29.207  0.00  0.00     0.078 H 
ATOM     48  H8  Y8L d          19.168  21.316  30.203  0.00  0.00     0.078 H 
ATOM     49  H9  Y8L d          20.290  21.864  27.957  0.00  0.00     0.066 H 
ATOM     50  H10 Y8L d          21.344  22.001  29.406  0.00  0.00     0.066 H 
ENDBRANCH   1  35
TORSDOF 6
ENDMDL
MODEL 7
REMARK VINA RESULT:      -6.9      4.168      8.696
REMARK  6 active torsions:
REMARK  status: ('A' for Active; 'I' for Inactive)
REMARK    1  A    between atoms: N16_6  and  C12_7 
REMARK    2  A    between atoms: C9_12  and  N7_13 
REMARK    3  A    between atoms: N7_13  and  C4_14 
REMARK    4  A    between atoms: C6_19  and  C15_20 
REMARK    5  A    between atoms: N25_24  and  C29_25 
REMARK    6  A    between atoms: C26_26  and  C27_27 
ROOT
ATOM      1  C12 Y8L d          26.473  28.666  25.932  0.00  0.00     0.030 A 
ATOM      2  C13 Y8L d          27.293  28.435  24.825  0.00  0.00    -0.055 A 
ATOM      3  C14 Y8L d          27.451  27.144  24.300  0.00  0.00    -0.054 A 
ATOM      4  C11 Y8L d          25.784  27.593  26.491  0.00  0.00    -0.055 A 
ATOM      5  C10 Y8L d          25.933  26.317  25.936  0.00  0.00    -0.054 A 
ATOM      6  C9  Y8L d          26.781  26.064  24.854  0.00  0.00     0.049 A 
ATOM      7  H11 Y8L d          27.814  29.266  24.364  0.00  0.00     0.087 H 
ATOM      8  H12 Y8L d          28.104  26.989  23.449  0.00  0.00     0.087 H 
ATOM      9  H13 Y8L d          25.138  27.745  27.348  0.00  0.00     0.087 H 
ATOM     10  H14 Y8L d          25.370  25.493  26.360  0.00  0.00     0.087 H 
ENDROOT
BRANCH   6  11
ATOM     11  N7  Y8L d          26.864  24.806  24.381  0.00  0.00    -0.188 N 
ATOM     12  H15 Y8L d          27.672  24.600  23.775  0.00  0.00     0.184 HD
BRANCH  11  13
ATOM     13  C4  Y8L d          26.015  23.785  24.606  0.00  0.00     0.727 A 
ATOM     14  N5  Y8L d          24.810  23.904  25.204  0.00  0.00    -0.061 NA
ATOM     15  C6  Y8L d          24.010  22.839  25.416  0.00  0.00     0.096 A 
ATOM     16  C1  Y8L d          24.409  21.601  24.911  0.00  0.00    -0.036 A 
ATOM     17  C2  Y8L d          25.625  21.507  24.257  0.00  0.00     0.023 A 
ATOM     18  H17 Y8L d          23.776  20.729  25.028  0.00  0.00     0.089 H 
ATOM     19  N3  Y8L d          26.379  22.585  24.114  0.00  0.00    -0.075 NA
ATOM     20  H16 Y8L d          25.959  20.553  23.865  0.00  0.00     0.115 H 
BRANCH  15  21
ATOM     21  C15 Y8L d          22.743  22.956  26.011  0.00  0.00     0.062 A 
ATOM     22  S23 Y8L d          21.436  21.844  25.874  0.00  0.00    -0.025 SA
ATOM     23  C24 Y8L d          20.359  22.823  26.738  0.00  0.00     0.291 A 
ATOM     24  O28 Y8L d          19.199  22.536  27.028  0.00  0.00    -0.259 OA
ATOM     25  N25 Y8L d          20.982  23.933  27.140  0.00  0.00    -0.316 N 
ATOM     26  C26 Y8L d          22.263  24.043  26.763  0.00  0.00     0.030 A 
BRANCH  25  27
ATOM     27  C29 Y8L d          20.290  24.974  27.952  0.00  0.00    -0.011 C 
ATOM     28  H18 Y8L d          20.026  25.826  27.309  0.00  0.00     0.057 H 
ATOM     29  H19 Y8L d          20.958  25.315  28.757  0.00  0.00     0.057 H 
ATOM     30  H20 Y8L d          19.375  24.549  28.390  0.00  0.00     0.057 H 
ENDBRANCH  25  27
BRANCH  26  31
ATOM     31  C27 Y8L d          23.107  25.258  27.154  0.00  0.00    -0.036 C 
ATOM     32  H21 Y8L d          22.889  26.092  26.471  0.00  0.00     0.035 H 
ATOM     33  H22 Y8L d          24.175  25.001  27.087  0.00  0.00     0.035 H 
ATOM     34  H23 Y8L d          22.865  25.556  28.185  0.00  0.00     0.035 H 
ENDBRANCH  26  31
ENDBRANCH  15  21
ENDBRANCH  11  13
ENDBRANCH   6  11
BRANCH   1  35
ATOM     35  N16 Y8L d          26.354  29.957  26.491  0.00  0.00    -0.378 N 
ATOM     36  C17 Y8L d          25.565  30.122  27.728  0.00  0.00     0.018 C 
ATOM     37  C18 Y8L d          25.141  31.566  28.055  0.00  0.00     0.096 C 
ATOM     38  H1  Y8L d          24.653  29.514  27.632  0.00  0.00     0.066 H 
ATOM     39  H2  Y8L d          26.168  29.748  28.568  0.00  0.00     0.066 H 
ATOM     40  N19 Y8L d          25.618  32.537  27.058  0.00  0.00    -0.072 N 
ATOM     41  H3  Y8L d          25.552  31.841  29.037  0.00  0.00     0.078 H 
ATOM     42  H4  Y8L d          24.042  31.611  28.092  0.00  0.00     0.078 H 
ATOM     43  C20 Y8L d          27.038  32.305  26.832  0.00  0.00     0.096 C 
ATOM     44  H5  Y8L d          25.477  33.474  27.400  0.00  0.00     0.277 HD
ATOM     45  H6  Y8L d          25.111  32.415  26.195  0.00  0.00     0.277 HD
ATOM     46  C21 Y8L d          27.180  31.056  25.961  0.00  0.00     0.018 C 
ATOM     47  H7  Y8L d          27.548  32.148  27.793  0.00  0.00     0.078 H 
ATOM     48  H8  Y8L d          27.481  33.171  26.318  0.00  0.00     0.078 H 
ATOM     49  H9  Y8L d          28.234  30.742  25.948  0.00  0.00     0.066 H 
ATOM     50  H10 Y8L d          26.854  31.291  24.936  0.00  0.00     0.066 H 
ENDBRANCH   1  35
TORSDOF 6
ENDMDL
