MODEL 1
REMARK VINA RESULT:      -8.1      0.000      0.000
REMARK  10 active torsions:
REMARK  status: ('A' for Active; 'I' for Inactive)
REMARK    1  A    between atoms: C2_2  and  C6_6 
REMARK    2  A    between atoms: C3_3  and  O20_16 
REMARK    3  A    between atoms: C5_5  and  C9_9 
REMARK    4  A    between atoms: C11_11  and  N29_21 
REMARK    5  A    between atoms: O20_16  and  C21_17 
REMARK    6  A    between atoms: C21_17  and  C22_18 
REMARK    7  A    between atoms: N29_21  and  C30_22 
REMARK    8  A    between atoms: N33_25  and  S46_28 
REMARK    9  A    between atoms: S46_28  and  C49_31 
REMARK   10  A    between atoms: C49_31  and  C50_32 
ROOT
ATOM      1  C30 MOL d          48.014   8.854   1.786  0.00  0.00     0.012 C 
ATOM      2  C31 MOL d          47.976   8.040   3.080  0.00  0.00    -0.031 C 
ATOM      3  C32 MOL d          49.264   8.108   3.868  0.00  0.00     0.007 C 
ATOM      4  N33 MOL d          50.358   7.816   2.940  0.00  0.00    -0.310 N 
ATOM      5  C34 MOL d          50.530   8.582   1.704  0.00  0.00     0.007 C 
ATOM      6  C35 MOL d          49.237   8.525   0.933  0.00  0.00    -0.031 C 
ATOM      7  H8  MOL d          48.045   9.924   2.040  0.00  0.00     0.072 H 
ATOM      8  H9  MOL d          47.778   6.989   2.824  0.00  0.00     0.038 H 
ATOM      9  H10 MOL d          47.160   8.424   3.710  0.00  0.00     0.038 H 
ATOM     10  H11 MOL d          49.249   7.364   4.678  0.00  0.00     0.065 H 
ATOM     11  H12 MOL d          49.391   9.113   4.295  0.00  0.00     0.065 H 
ATOM     12  H13 MOL d          51.342   8.144   1.103  0.00  0.00     0.065 H 
ATOM     13  H14 MOL d          50.776   9.627   1.944  0.00  0.00     0.065 H 
ATOM     14  H15 MOL d          49.292   9.248   0.105  0.00  0.00     0.038 H 
ATOM     15  H16 MOL d          49.117   7.511   0.526  0.00  0.00     0.038 H 
ENDROOT
BRANCH   1  16
ATOM     16  N29 MOL d          46.815   8.576   1.055  0.00  0.00    -0.385 N 
ATOM     17  H7  MOL d          46.538   7.594   0.917  0.00  0.00     0.160 HD
BRANCH  16  18
ATOM     18  C11 MOL d          46.028   9.556   0.537  0.00  0.00     0.029 A 
ATOM     19  C10 MOL d          46.177  10.822   1.189  0.00  0.00    -0.046 A 
ATOM     20  C9  MOL d          45.377  11.945   0.728  0.00  0.00    -0.015 A 
ATOM     21  H1  MOL d          46.874  10.940   2.010  0.00  0.00     0.088 H 
ATOM     22  C14 MOL d          44.476  11.793  -0.408  0.00  0.00    -0.072 A 
ATOM     23  C13 MOL d          44.306  10.527  -1.061  0.00  0.00    -0.080 A 
ATOM     24  H4  MOL d          43.923  12.653  -0.766  0.00  0.00     0.084 H 
ATOM     25  C12 MOL d          45.100   9.409  -0.582  0.00  0.00    -0.058 A 
ATOM     26  H3  MOL d          43.608  10.408  -1.883  0.00  0.00     0.083 H 
ATOM     27  H2  MOL d          45.002   8.443  -1.066  0.00  0.00     0.086 H 
BRANCH  20  28
ATOM     28  C5  MOL d          45.419  13.263   1.394  0.00  0.00     0.036 A 
ATOM     29  S1  MOL d          44.323  14.585   0.840  0.00  0.00    -0.078 SA
ATOM     30  C2  MOL d          44.923  15.712   2.093  0.00  0.00     0.117 A 
ATOM     31  C3  MOL d          45.851  15.124   2.829  0.00  0.00     0.112 A 
ATOM     32  C4  MOL d          46.098  13.722   2.457  0.00  0.00     0.064 A 
ATOM     33 BR19 MOL d          47.206  12.718   3.567  0.00  0.00    -0.047 Br
BRANCH  30  34
ATOM     34  C6  MOL d          44.477  17.088   2.091  0.00  0.00     0.219 C 
ATOM     35  O7  MOL d          43.970  17.414   0.996  0.00  0.00    -0.643 OA
ATOM     36  O8  MOL d          44.592  17.866   3.064  0.00  0.00    -0.643 OA
ENDBRANCH  30  34
BRANCH  31  37
ATOM     37  O20 MOL d          46.411  15.756   3.850  0.00  0.00    -0.338 OA
BRANCH  37  38
ATOM     38  C21 MOL d          47.648  16.383   3.584  0.00  0.00     0.106 C 
ATOM     39  H5  MOL d          47.628  16.864   2.595  0.00  0.00     0.091 H 
ATOM     40  H6  MOL d          48.465  15.646   3.616  0.00  0.00     0.091 H 
BRANCH  38  41
ATOM     41  C22 MOL d          47.827  17.386   4.635  0.00  0.00     0.198 C 
ATOM     42  O25 MOL d          46.835  17.589   5.359  0.00  0.00    -0.646 OA
ATOM     43  O26 MOL d          48.926  17.974   4.758  0.00  0.00    -0.646 OA
ENDBRANCH  38  41
ENDBRANCH  37  38
ENDBRANCH  31  37
ENDBRANCH  20  28
ENDBRANCH  16  18
ENDBRANCH   1  16
BRANCH   4  44
ATOM     44  S46 MOL d          51.769   7.059   3.533  0.00  0.00     0.232 S 
ATOM     45  O47 MOL d          52.456   8.068   4.307  0.00  0.00    -0.205 OA
ATOM     46  O48 MOL d          52.422   6.467   2.381  0.00  0.00    -0.205 OA
BRANCH  44  47
ATOM     47  C49 MOL d          51.077   5.870   4.704  0.00  0.00     0.070 C 
ATOM     48  H17 MOL d          50.073   6.196   5.013  0.00  0.00     0.066 H 
ATOM     49  H18 MOL d          51.727   5.799   5.588  0.00  0.00     0.066 H 
BRANCH  47  50
ATOM     50  C50 MOL d          50.988   4.531   4.035  0.00  0.00    -0.043 A 
ATOM     51  C53 MOL d          52.213   3.758   3.974  0.00  0.00    -0.076 A 
ATOM     52  C54 MOL d          52.127   2.418   3.434  0.00  0.00    -0.082 A 
ATOM     53  H19 MOL d          53.156   4.168   4.318  0.00  0.00     0.084 H 
ATOM     54  C55 MOL d          50.846   1.916   2.940  0.00  0.00    -0.083 A 
ATOM     55  H20 MOL d          53.009   1.789   3.396  0.00  0.00     0.083 H 
ATOM     56  C56 MOL d          49.626   2.698   3.021  0.00  0.00    -0.082 A 
ATOM     57  H21 MOL d          50.807   0.927   2.500  0.00  0.00     0.083 H 
ATOM     58  C57 MOL d          49.687   4.042   3.571  0.00  0.00    -0.076 A 
ATOM     59  H22 MOL d          48.685   2.286   2.676  0.00  0.00     0.083 H 
ATOM     60  H23 MOL d          48.800   4.661   3.635  0.00  0.00     0.084 H 
ENDBRANCH  47  50
ENDBRANCH  44  47
ENDBRANCH   4  44
TORSDOF 10
ENDMDL
MODEL 2
REMARK VINA RESULT:      -7.4      1.726      2.398
REMARK  10 active torsions:
REMARK  status: ('A' for Active; 'I' for Inactive)
REMARK    1  A    between atoms: C2_2  and  C6_6 
REMARK    2  A    between atoms: C3_3  and  O20_16 
REMARK    3  A    between atoms: C5_5  and  C9_9 
REMARK    4  A    between atoms: C11_11  and  N29_21 
REMARK    5  A    between atoms: O20_16  and  C21_17 
REMARK    6  A    between atoms: C21_17  and  C22_18 
REMARK    7  A    between atoms: N29_21  and  C30_22 
REMARK    8  A    between atoms: N33_25  and  S46_28 
REMARK    9  A    between atoms: S46_28  and  C49_31 
REMARK   10  A    between atoms: C49_31  and  C50_32 
ROOT
ATOM      1  C30 MOL d          48.785   8.005   1.311  0.00  0.00     0.012 C 
ATOM      2  C31 MOL d          48.401   7.592   2.732  0.00  0.00    -0.031 C 
ATOM      3  C32 MOL d          49.543   7.697   3.716  0.00  0.00     0.007 C 
ATOM      4  N33 MOL d          50.693   7.014   3.122  0.00  0.00    -0.310 N 
ATOM      5  C34 MOL d          51.191   7.379   1.793  0.00  0.00     0.007 C 
ATOM      6  C35 MOL d          50.043   7.290   0.822  0.00  0.00    -0.031 C 
ATOM      7  H8  MOL d          48.973   9.088   1.294  0.00  0.00     0.072 H 
ATOM      8  H9  MOL d          48.054   6.548   2.710  0.00  0.00     0.038 H 
ATOM      9  H10 MOL d          47.583   8.242   3.075  0.00  0.00     0.038 H 
ATOM     10  H11 MOL d          49.268   7.215   4.665  0.00  0.00     0.065 H 
ATOM     11  H12 MOL d          49.786   8.754   3.898  0.00  0.00     0.065 H 
ATOM     12  H13 MOL d          51.990   6.686   1.491  0.00  0.00     0.065 H 
ATOM     13  H14 MOL d          51.585   8.406   1.812  0.00  0.00     0.065 H 
ATOM     14  H15 MOL d          50.355   7.742  -0.131  0.00  0.00     0.038 H 
ATOM     15  H16 MOL d          49.802   6.229   0.662  0.00  0.00     0.038 H 
ENDROOT
BRANCH   1  16
ATOM     16  N29 MOL d          47.682   7.703   0.451  0.00  0.00    -0.385 N 
ATOM     17  H7  MOL d          47.610   6.756   0.053  0.00  0.00     0.160 HD
BRANCH  16  18
ATOM     18  C11 MOL d          46.724   8.616   0.139  0.00  0.00     0.029 A 
ATOM     19  C10 MOL d          46.874   9.866   0.820  0.00  0.00    -0.046 A 
ATOM     20  C9  MOL d          45.901  10.919   0.574  0.00  0.00    -0.015 A 
ATOM     21  H1  MOL d          47.697  10.025   1.507  0.00  0.00     0.088 H 
ATOM     22  C14 MOL d          44.822  10.717  -0.385  0.00  0.00    -0.072 A 
ATOM     23  C13 MOL d          44.652   9.465  -1.065  0.00  0.00    -0.080 A 
ATOM     24  H4  MOL d          44.134  11.530  -0.590  0.00  0.00     0.084 H 
ATOM     25  C12 MOL d          45.621   8.417  -0.800  0.00  0.00    -0.058 A 
ATOM     26  H3  MOL d          43.828   9.306  -1.751  0.00  0.00     0.083 H 
ATOM     27  H2  MOL d          45.525   7.464  -1.309  0.00  0.00     0.086 H 
BRANCH  20  28
ATOM     28  C5  MOL d          45.944  12.208   1.293  0.00  0.00     0.036 A 
ATOM     29  S1  MOL d          46.945  12.372   2.786  0.00  0.00    -0.078 SA
ATOM     30  C2  MOL d          46.517  14.099   2.976  0.00  0.00     0.117 A 
ATOM     31  C3  MOL d          45.705  14.477   2.004  0.00  0.00     0.112 A 
ATOM     32  C4  MOL d          45.417  13.414   1.028  0.00  0.00     0.064 A 
ATOM     33 BR19 MOL d          44.480  13.887  -0.510  0.00  0.00    -0.047 Br
BRANCH  30  34
ATOM     34  C6  MOL d          46.951  14.818   4.154  0.00  0.00     0.219 C 
ATOM     35  O7  MOL d          46.471  14.334   5.201  0.00  0.00    -0.643 OA
ATOM     36  O8  MOL d          47.708  15.814   4.130  0.00  0.00    -0.643 OA
ENDBRANCH  30  34
BRANCH  31  37
ATOM     37  O20 MOL d          45.289  15.732   1.915  0.00  0.00    -0.338 OA
BRANCH  37  38
ATOM     38  C21 MOL d          44.114  16.045   2.634  0.00  0.00     0.106 C 
ATOM     39  H5  MOL d          43.655  15.128   3.034  0.00  0.00     0.091 H 
ATOM     40  H6  MOL d          43.393  16.561   1.983  0.00  0.00     0.091 H 
BRANCH  38  41
ATOM     41  C22 MOL d          44.532  16.923   3.727  0.00  0.00     0.198 C 
ATOM     42  O25 MOL d          44.157  16.584   4.865  0.00  0.00    -0.646 OA
ATOM     43  O26 MOL d          45.224  17.938   3.484  0.00  0.00    -0.646 OA
ENDBRANCH  38  41
ENDBRANCH  37  38
ENDBRANCH  31  37
ENDBRANCH  20  28
ENDBRANCH  16  18
ENDBRANCH   1  16
BRANCH   4  44
ATOM     44  S46 MOL d          51.834   6.264   4.148  0.00  0.00     0.232 S 
ATOM     45  O47 MOL d          52.561   7.344   4.776  0.00  0.00    -0.205 OA
ATOM     46  O48 MOL d          52.543   5.301   3.325  0.00  0.00    -0.205 OA
BRANCH  44  47
ATOM     47  C49 MOL d          50.763   5.538   5.409  0.00  0.00     0.070 C 
ATOM     48  H17 MOL d          49.751   5.960   5.322  0.00  0.00     0.066 H 
ATOM     49  H18 MOL d          51.167   5.757   6.408  0.00  0.00     0.066 H 
BRANCH  47  50
ATOM     50  C50 MOL d          50.711   4.054   5.200  0.00  0.00    -0.043 A 
ATOM     51  C53 MOL d          51.611   3.257   6.009  0.00  0.00    -0.076 A 
ATOM     52  C54 MOL d          51.499   1.818   5.906  0.00  0.00    -0.082 A 
ATOM     53  H19 MOL d          52.340   3.720   6.665  0.00  0.00     0.084 H 
ATOM     54  C55 MOL d          50.533   1.230   4.979  0.00  0.00    -0.083 A 
ATOM     55  H20 MOL d          52.129   1.178   6.513  0.00  0.00     0.083 H 
ATOM     56  C56 MOL d          49.630   2.043   4.186  0.00  0.00    -0.082 A 
ATOM     57  H21 MOL d          50.491   0.152   4.882  0.00  0.00     0.083 H 
ATOM     58  C57 MOL d          49.716   3.490   4.283  0.00  0.00    -0.076 A 
ATOM     59  H22 MOL d          48.902   1.577   3.532  0.00  0.00     0.083 H 
ATOM     60  H23 MOL d          49.068   4.131   3.697  0.00  0.00     0.084 H 
ENDBRANCH  47  50
ENDBRANCH  44  47
ENDBRANCH   4  44
TORSDOF 10
ENDMDL
MODEL 3
REMARK VINA RESULT:      -7.3      3.258     11.471
REMARK  10 active torsions:
REMARK  status: ('A' for Active; 'I' for Inactive)
REMARK    1  A    between atoms: C2_2  and  C6_6 
REMARK    2  A    between atoms: C3_3  and  O20_16 
REMARK    3  A    between atoms: C5_5  and  C9_9 
REMARK    4  A    between atoms: C11_11  and  N29_21 
REMARK    5  A    between atoms: O20_16  and  C21_17 
REMARK    6  A    between atoms: C21_17  and  C22_18 
REMARK    7  A    between atoms: N29_21  and  C30_22 
REMARK    8  A    between atoms: N33_25  and  S46_28 
REMARK    9  A    between atoms: S46_28  and  C49_31 
REMARK   10  A    between atoms: C49_31  and  C50_32 
ROOT
ATOM      1  C30 MOL d          47.570   9.552  -0.330  0.00  0.00     0.012 C 
ATOM      2  C31 MOL d          46.101   9.802  -0.671  0.00  0.00    -0.031 C 
ATOM      3  C32 MOL d          45.733  11.268  -0.695  0.00  0.00     0.007 C 
ATOM      4  N33 MOL d          46.228  11.860   0.549  0.00  0.00    -0.310 N 
ATOM      5  C34 MOL d          47.635  11.742   0.939  0.00  0.00     0.007 C 
ATOM      6  C35 MOL d          47.999  10.280   0.942  0.00  0.00    -0.031 C 
ATOM      7  H8  MOL d          48.195   9.909  -1.162  0.00  0.00     0.072 H 
ATOM      8  H9  MOL d          45.477   9.297   0.080  0.00  0.00     0.038 H 
ATOM      9  H10 MOL d          45.896   9.375  -1.664  0.00  0.00     0.038 H 
ATOM     10  H11 MOL d          44.641  11.380  -0.756  0.00  0.00     0.065 H 
ATOM     11  H12 MOL d          46.202  11.760  -1.559  0.00  0.00     0.065 H 
ATOM     12  H13 MOL d          47.780  12.164   1.945  0.00  0.00     0.065 H 
ATOM     13  H14 MOL d          48.268  12.283   0.221  0.00  0.00     0.065 H 
ATOM     14  H15 MOL d          49.091  10.193   1.045  0.00  0.00     0.038 H 
ATOM     15  H16 MOL d          47.510   9.800   1.802  0.00  0.00     0.038 H 
ENDROOT
BRANCH   1  16
ATOM     16  N29 MOL d          47.752   8.141  -0.174  0.00  0.00    -0.385 N 
ATOM     17  H7  MOL d          46.919   7.537  -0.137  0.00  0.00     0.160 HD
BRANCH  16  18
ATOM     18  C11 MOL d          48.980   7.566  -0.073  0.00  0.00     0.029 A 
ATOM     19  C10 MOL d          49.158   6.790   1.117  0.00  0.00    -0.046 A 
ATOM     20  C9  MOL d          50.437   6.134   1.340  0.00  0.00    -0.015 A 
ATOM     21  H1  MOL d          48.354   6.692   1.837  0.00  0.00     0.088 H 
ATOM     22  C14 MOL d          51.499   6.230   0.346  0.00  0.00    -0.072 A 
ATOM     23  C13 MOL d          51.339   7.016  -0.843  0.00  0.00    -0.080 A 
ATOM     24  H4  MOL d          52.428   5.696   0.508  0.00  0.00     0.084 H 
ATOM     25  C12 MOL d          50.062   7.677  -1.048  0.00  0.00    -0.058 A 
ATOM     26  H3  MOL d          52.144   7.114  -1.564  0.00  0.00     0.083 H 
ATOM     27  H2  MOL d          49.909   8.267  -1.945  0.00  0.00     0.086 H 
BRANCH  20  28
ATOM     28  C5  MOL d          50.724   5.377   2.576  0.00  0.00     0.036 A 
ATOM     29  S1  MOL d          51.709   6.135   3.885  0.00  0.00    -0.078 SA
ATOM     30  C2  MOL d          51.550   4.700   4.940  0.00  0.00     0.117 A 
ATOM     31  C3  MOL d          50.829   3.769   4.339  0.00  0.00     0.112 A 
ATOM     32  C4  MOL d          50.327   4.173   3.017  0.00  0.00     0.064 A 
ATOM     33 BR19 MOL d          49.107   3.046   2.175  0.00  0.00    -0.047 Br
BRANCH  30  34
ATOM     34  C6  MOL d          52.282   4.643   6.187  0.00  0.00     0.219 C 
ATOM     35  O7  MOL d          51.545   4.862   7.172  0.00  0.00    -0.643 OA
ATOM     36  O8  MOL d          53.509   4.414   6.273  0.00  0.00    -0.643 OA
ENDBRANCH  30  34
BRANCH  31  37
ATOM     37  O20 MOL d          50.543   2.629   4.951  0.00  0.00    -0.338 OA
BRANCH  37  38
ATOM     38  C21 MOL d          51.561   1.650   4.941  0.00  0.00     0.106 C 
ATOM     39  H5  MOL d          52.518   2.097   4.633  0.00  0.00     0.091 H 
ATOM     40  H6  MOL d          51.300   0.834   4.251  0.00  0.00     0.091 H 
BRANCH  38  41
ATOM     41  C22 MOL d          51.651   1.147   6.312  0.00  0.00     0.198 C 
ATOM     42  O25 MOL d          50.581   1.120   6.947  0.00  0.00    -0.646 OA
ATOM     43  O26 MOL d          52.756   0.777   6.771  0.00  0.00    -0.646 OA
ENDBRANCH  38  41
ENDBRANCH  37  38
ENDBRANCH  31  37
ENDBRANCH  20  28
ENDBRANCH  16  18
ENDBRANCH   1  16
BRANCH   4  44
ATOM     44  S46 MOL d          45.391  13.185   1.228  0.00  0.00     0.232 S 
ATOM     45  O47 MOL d          44.248  12.617   1.906  0.00  0.00    -0.205 OA
ATOM     46  O48 MOL d          45.190  14.130   0.145  0.00  0.00    -0.205 OA
BRANCH  44  47
ATOM     47  C49 MOL d          46.550  13.730   2.502  0.00  0.00     0.070 C 
ATOM     48  H17 MOL d          47.580  13.508   2.185  0.00  0.00     0.066 H 
ATOM     49  H18 MOL d          46.336  13.206   3.445  0.00  0.00     0.066 H 
BRANCH  47  50
ATOM     50  C50 MOL d          46.390  15.208   2.698  0.00  0.00    -0.043 A 
ATOM     51  C53 MOL d          45.109  15.774   2.322  0.00  0.00    -0.076 A 
ATOM     52  C54 MOL d          44.893  17.176   2.607  0.00  0.00    -0.082 A 
ATOM     53  H19 MOL d          44.345  15.171   1.846  0.00  0.00     0.084 H 
ATOM     54  C55 MOL d          45.964  17.966   3.212  0.00  0.00    -0.083 A 
ATOM     55  H20 MOL d          43.942  17.639   2.373  0.00  0.00     0.083 H 
ATOM     56  C56 MOL d          47.236  17.381   3.595  0.00  0.00    -0.082 A 
ATOM     57  H21 MOL d          45.802  19.025   3.380  0.00  0.00     0.083 H 
ATOM     58  C57 MOL d          47.470  15.972   3.329  0.00  0.00    -0.076 A 
ATOM     59  H22 MOL d          47.998  17.986   4.071  0.00  0.00     0.083 H 
ATOM     60  H23 MOL d          48.412  15.502   3.588  0.00  0.00     0.084 H 
ENDBRANCH  47  50
ENDBRANCH  44  47
ENDBRANCH   4  44
TORSDOF 10
ENDMDL
MODEL 4
REMARK VINA RESULT:      -7.1      3.444     11.547
REMARK  10 active torsions:
REMARK  status: ('A' for Active; 'I' for Inactive)
REMARK    1  A    between atoms: C2_2  and  C6_6 
REMARK    2  A    between atoms: C3_3  and  O20_16 
REMARK    3  A    between atoms: C5_5  and  C9_9 
REMARK    4  A    between atoms: C11_11  and  N29_21 
REMARK    5  A    between atoms: O20_16  and  C21_17 
REMARK    6  A    between atoms: C21_17  and  C22_18 
REMARK    7  A    between atoms: N29_21  and  C30_22 
REMARK    8  A    between atoms: N33_25  and  S46_28 
REMARK    9  A    between atoms: S46_28  and  C49_31 
REMARK   10  A    between atoms: C49_31  and  C50_32 
ROOT
ATOM      1  C30 MOL d          47.709   9.184  -0.060  0.00  0.00     0.012 C 
ATOM      2  C31 MOL d          46.367   9.515  -0.715  0.00  0.00    -0.031 C 
ATOM      3  C32 MOL d          46.095  10.998  -0.807  0.00  0.00     0.007 C 
ATOM      4  N33 MOL d          46.335  11.568   0.520  0.00  0.00    -0.310 N 
ATOM      5  C34 MOL d          47.613  11.373   1.210  0.00  0.00     0.007 C 
ATOM      6  C35 MOL d          47.886   9.893   1.281  0.00  0.00    -0.031 C 
ATOM      7  H8  MOL d          48.520   9.502  -0.731  0.00  0.00     0.072 H 
ATOM      8  H9  MOL d          45.566   9.049  -0.123  0.00  0.00     0.038 H 
ATOM      9  H10 MOL d          46.363   9.095  -1.732  0.00  0.00     0.038 H 
ATOM     10  H11 MOL d          45.051  11.172  -1.107  0.00  0.00     0.065 H 
ATOM     11  H12 MOL d          46.769  11.460  -1.543  0.00  0.00     0.065 H 
ATOM     12  H13 MOL d          47.555  11.790   2.226  0.00  0.00     0.065 H 
ATOM     13  H14 MOL d          48.418  11.875   0.652  0.00  0.00     0.065 H 
ATOM     14  H15 MOL d          48.922   9.745   1.621  0.00  0.00     0.038 H 
ATOM     15  H16 MOL d          47.194   9.445   2.008  0.00  0.00     0.038 H 
ENDROOT
BRANCH   1  16
ATOM     16  N29 MOL d          47.773   7.766   0.120  0.00  0.00    -0.385 N 
ATOM     17  H7  MOL d          46.899   7.222   0.078  0.00  0.00     0.160 HD
BRANCH  16  18
ATOM     18  C11 MOL d          48.941   7.107   0.346  0.00  0.00     0.029 A 
ATOM     19  C10 MOL d          48.914   6.265   1.503  0.00  0.00    -0.046 A 
ATOM     20  C9  MOL d          50.112   5.517   1.852  0.00  0.00    -0.015 A 
ATOM     21  H1  MOL d          48.019   6.186   2.108  0.00  0.00     0.088 H 
ATOM     22  C14 MOL d          51.300   5.590   1.009  0.00  0.00    -0.072 A 
ATOM     23  C13 MOL d          51.345   6.441  -0.145  0.00  0.00    -0.080 A 
ATOM     24  H4  MOL d          52.166   4.990   1.260  0.00  0.00     0.084 H 
ATOM     25  C12 MOL d          50.147   7.194  -0.475  0.00  0.00    -0.058 A 
ATOM     26  H3  MOL d          52.241   6.520  -0.750  0.00  0.00     0.083 H 
ATOM     27  H2  MOL d          50.148   7.835  -1.349  0.00  0.00     0.086 H 
BRANCH  20  28
ATOM     28  C5  MOL d          50.189   4.685   3.069  0.00  0.00     0.036 A 
ATOM     29  S1  MOL d          49.279   3.128   3.152  0.00  0.00    -0.078 SA
ATOM     30  C2  MOL d          49.903   2.761   4.788  0.00  0.00     0.117 A 
ATOM     31  C3  MOL d          50.705   3.729   5.198  0.00  0.00     0.112 A 
ATOM     32  C4  MOL d          50.898   4.796   4.204  0.00  0.00     0.064 A 
ATOM     33 BR19 MOL d          52.186   6.091   4.567  0.00  0.00    -0.047 Br
BRANCH  30  34
ATOM     34  C6  MOL d          49.402   1.608   5.503  0.00  0.00     0.219 C 
ATOM     35  O7  MOL d          49.369   0.588   4.782  0.00  0.00    -0.643 OA
ATOM     36  O8  MOL d          49.035   1.627   6.699  0.00  0.00    -0.643 OA
ENDBRANCH  30  34
BRANCH  31  37
ATOM     37  O20 MOL d          51.321   3.653   6.369  0.00  0.00    -0.338 OA
BRANCH  37  38
ATOM     38  C21 MOL d          52.718   3.449   6.319  0.00  0.00     0.106 C 
ATOM     39  H5  MOL d          53.192   3.829   7.236  0.00  0.00     0.091 H 
ATOM     40  H6  MOL d          53.148   3.960   5.446  0.00  0.00     0.091 H 
BRANCH  38  41
ATOM     41  C22 MOL d          52.910   2.002   6.209  0.00  0.00     0.198 C 
ATOM     42  O25 MOL d          53.334   1.598   5.110  0.00  0.00    -0.646 OA
ATOM     43  O26 MOL d          52.653   1.260   7.184  0.00  0.00    -0.646 OA
ENDBRANCH  38  41
ENDBRANCH  37  38
ENDBRANCH  31  37
ENDBRANCH  20  28
ENDBRANCH  16  18
ENDBRANCH   1  16
BRANCH   4  44
ATOM     44  S46 MOL d          45.444  12.940   1.008  0.00  0.00     0.232 S 
ATOM     45  O47 MOL d          44.148  12.440   1.409  0.00  0.00    -0.205 OA
ATOM     46  O48 MOL d          45.543  13.892  -0.082  0.00  0.00    -0.205 OA
BRANCH  44  47
ATOM     47  C49 MOL d          46.318  13.421   2.514  0.00  0.00     0.070 C 
ATOM     48  H17 MOL d          47.370  13.106   2.448  0.00  0.00     0.066 H 
ATOM     49  H18 MOL d          45.846  12.943   3.385  0.00  0.00     0.066 H 
BRANCH  47  50
ATOM     50  C50 MOL d          46.247  14.912   2.657  0.00  0.00    -0.043 A 
ATOM     51  C53 MOL d          44.954  15.522   2.417  0.00  0.00    -0.076 A 
ATOM     52  C54 MOL d          44.835  16.944   2.658  0.00  0.00    -0.082 A 
ATOM     53  H19 MOL d          44.111  14.937   2.070  0.00  0.00     0.084 H 
ATOM     54  C55 MOL d          46.006  17.707   3.085  0.00  0.00    -0.083 A 
ATOM     55  H20 MOL d          43.882  17.441   2.523  0.00  0.00     0.083 H 
ATOM     56  C56 MOL d          47.291  17.079   3.334  0.00  0.00    -0.082 A 
ATOM     57  H21 MOL d          45.912  18.779   3.220  0.00  0.00     0.083 H 
ATOM     58  C57 MOL d          47.430  15.650   3.110  0.00  0.00    -0.076 A 
ATOM     59  H22 MOL d          48.133  17.666   3.681  0.00  0.00     0.083 H 
ATOM     60  H23 MOL d          48.376  15.147   3.272  0.00  0.00     0.084 H 
ENDBRANCH  47  50
ENDBRANCH  44  47
ENDBRANCH   4  44
TORSDOF 10
ENDMDL
MODEL 5
REMARK VINA RESULT:      -7.0      2.159      3.146
REMARK  10 active torsions:
REMARK  status: ('A' for Active; 'I' for Inactive)
REMARK    1  A    between atoms: C2_2  and  C6_6 
REMARK    2  A    between atoms: C3_3  and  O20_16 
REMARK    3  A    between atoms: C5_5  and  C9_9 
REMARK    4  A    between atoms: C11_11  and  N29_21 
REMARK    5  A    between atoms: O20_16  and  C21_17 
REMARK    6  A    between atoms: C21_17  and  C22_18 
REMARK    7  A    between atoms: N29_21  and  C30_22 
REMARK    8  A    between atoms: N33_25  and  S46_28 
REMARK    9  A    between atoms: S46_28  and  C49_31 
REMARK   10  A    between atoms: C49_31  and  C50_32 
ROOT
ATOM      1  C30 MOL d          48.909   7.809   3.273  0.00  0.00     0.012 C 
ATOM      2  C31 MOL d          48.460   6.468   3.853  0.00  0.00    -0.031 C 
ATOM      3  C32 MOL d          49.320   5.993   5.001  0.00  0.00     0.007 C 
ATOM      4  N33 MOL d          50.715   6.086   4.566  0.00  0.00    -0.310 N 
ATOM      5  C34 MOL d          51.271   7.344   4.060  0.00  0.00     0.007 C 
ATOM      6  C35 MOL d          50.397   7.819   2.928  0.00  0.00    -0.031 C 
ATOM      7  H8  MOL d          48.718   8.599   4.014  0.00  0.00     0.072 H 
ATOM      8  H9  MOL d          48.496   5.712   3.055  0.00  0.00     0.038 H 
ATOM      9  H10 MOL d          47.425   6.572   4.212  0.00  0.00     0.038 H 
ATOM     10  H11 MOL d          49.073   4.951   5.251  0.00  0.00     0.065 H 
ATOM     11  H12 MOL d          49.157   6.631   5.882  0.00  0.00     0.065 H 
ATOM     12  H13 MOL d          52.295   7.178   3.695  0.00  0.00     0.065 H 
ATOM     13  H14 MOL d          51.284   8.096   4.862  0.00  0.00     0.065 H 
ATOM     14  H15 MOL d          50.689   8.847   2.670  0.00  0.00     0.038 H 
ATOM     15  H16 MOL d          50.560   7.163   2.061  0.00  0.00     0.038 H 
ENDROOT
BRANCH   1  16
ATOM     16  N29 MOL d          48.130   8.064   2.099  0.00  0.00    -0.385 N 
ATOM     17  H7  MOL d          47.510   7.321   1.747  0.00  0.00     0.160 HD
BRANCH  16  18
ATOM     18  C11 MOL d          48.176   9.247   1.431  0.00  0.00     0.029 A 
ATOM     19  C10 MOL d          47.453  10.302   2.074  0.00  0.00    -0.046 A 
ATOM     20  C9  MOL d          47.422  11.613   1.445  0.00  0.00    -0.015 A 
ATOM     21  H1  MOL d          46.938  10.127   3.011  0.00  0.00     0.088 H 
ATOM     22  C14 MOL d          48.155  11.857   0.209  0.00  0.00    -0.072 A 
ATOM     23  C13 MOL d          48.872  10.806  -0.453  0.00  0.00    -0.080 A 
ATOM     24  H4  MOL d          48.158  12.853  -0.220  0.00  0.00     0.084 H 
ATOM     25  C12 MOL d          48.884   9.497   0.177  0.00  0.00    -0.058 A 
ATOM     26  H3  MOL d          49.387  10.981  -1.391  0.00  0.00     0.083 H 
ATOM     27  H2  MOL d          49.429   8.687  -0.295  0.00  0.00     0.086 H 
BRANCH  20  28
ATOM     28  C5  MOL d          46.638  12.732   2.006  0.00  0.00     0.036 A 
ATOM     29  S1  MOL d          47.232  13.598   3.474  0.00  0.00    -0.078 SA
ATOM     30  C2  MOL d          45.851  14.735   3.457  0.00  0.00     0.117 A 
ATOM     31  C3  MOL d          45.048  14.461   2.443  0.00  0.00     0.112 A 
ATOM     32  C4  MOL d          45.520  13.353   1.599  0.00  0.00     0.064 A 
ATOM     33 BR19 MOL d          44.603  13.028   0.011  0.00  0.00    -0.047 Br
BRANCH  30  34
ATOM     34  C6  MOL d          45.684  15.676   4.543  0.00  0.00     0.219 C 
ATOM     35  O7  MOL d          46.378  16.703   4.383  0.00  0.00    -0.643 OA
ATOM     36  O8  MOL d          44.943  15.483   5.533  0.00  0.00    -0.643 OA
ENDBRANCH  30  34
BRANCH  31  37
ATOM     37  O20 MOL d          43.976  15.203   2.204  0.00  0.00    -0.338 OA
BRANCH  37  38
ATOM     38  C21 MOL d          44.065  16.078   1.098  0.00  0.00     0.106 C 
ATOM     39  H5  MOL d          43.120  16.078   0.534  0.00  0.00     0.091 H 
ATOM     40  H6  MOL d          44.887  15.773   0.435  0.00  0.00     0.091 H 
BRANCH  38  41
ATOM     41  C22 MOL d          44.325  17.406   1.654  0.00  0.00     0.198 C 
ATOM     42  O25 MOL d          43.389  17.913   2.300  0.00  0.00    -0.646 OA
ATOM     43  O26 MOL d          45.434  17.956   1.466  0.00  0.00    -0.646 OA
ENDBRANCH  38  41
ENDBRANCH  37  38
ENDBRANCH  31  37
ENDBRANCH  20  28
ENDBRANCH  16  18
ENDBRANCH   1  16
BRANCH   4  44
ATOM     44  S46 MOL d          51.857   4.987   5.202  0.00  0.00     0.232 S 
ATOM     45  O47 MOL d          51.981   5.320   6.603  0.00  0.00    -0.205 OA
ATOM     46  O48 MOL d          53.019   5.070   4.336  0.00  0.00    -0.205 OA
BRANCH  44  47
ATOM     47  C49 MOL d          50.951   3.427   5.102  0.00  0.00     0.070 C 
ATOM     48  H17 MOL d          50.145   3.514   4.358  0.00  0.00     0.066 H 
ATOM     49  H18 MOL d          50.518   3.188   6.085  0.00  0.00     0.066 H 
BRANCH  47  50
ATOM     50  C50 MOL d          51.902   2.343   4.692  0.00  0.00    -0.043 A 
ATOM     51  C53 MOL d          52.576   1.637   5.764  0.00  0.00    -0.076 A 
ATOM     52  C54 MOL d          53.412   0.514   5.397  0.00  0.00    -0.082 A 
ATOM     53  H19 MOL d          52.460   1.939   6.798  0.00  0.00     0.084 H 
ATOM     54  C55 MOL d          53.577   0.163   3.988  0.00  0.00    -0.083 A 
ATOM     55  H20 MOL d          53.913  -0.065   6.164  0.00  0.00     0.083 H 
ATOM     56  C56 MOL d          52.884   0.872   2.928  0.00  0.00    -0.082 A 
ATOM     57  H21 MOL d          54.240  -0.654   3.727  0.00  0.00     0.083 H 
ATOM     58  C57 MOL d          52.031   1.995   3.274  0.00  0.00    -0.076 A 
ATOM     59  H22 MOL d          53.002   0.567   1.894  0.00  0.00     0.083 H 
ATOM     60  H23 MOL d          51.507   2.558   2.510  0.00  0.00     0.084 H 
ENDBRANCH  47  50
ENDBRANCH  44  47
ENDBRANCH   4  44
TORSDOF 10
ENDMDL
MODEL 6
REMARK VINA RESULT:      -6.8      2.182      3.255
REMARK  10 active torsions:
REMARK  status: ('A' for Active; 'I' for Inactive)
REMARK    1  A    between atoms: C2_2  and  C6_6 
REMARK    2  A    between atoms: C3_3  and  O20_16 
REMARK    3  A    between atoms: C5_5  and  C9_9 
REMARK    4  A    between atoms: C11_11  and  N29_21 
REMARK    5  A    between atoms: O20_16  and  C21_17 
REMARK    6  A    between atoms: C21_17  and  C22_18 
REMARK    7  A    between atoms: N29_21  and  C30_22 
REMARK    8  A    between atoms: N33_25  and  S46_28 
REMARK    9  A    between atoms: S46_28  and  C49_31 
REMARK   10  A    between atoms: C49_31  and  C50_32 
ROOT
ATOM      1  C30 MOL d          48.984   7.933   3.370  0.00  0.00     0.012 C 
ATOM      2  C31 MOL d          48.466   6.674   4.067  0.00  0.00    -0.031 C 
ATOM      3  C32 MOL d          49.377   6.180   5.166  0.00  0.00     0.007 C 
ATOM      4  N33 MOL d          50.730   6.114   4.613  0.00  0.00    -0.310 N 
ATOM      5  C34 MOL d          51.353   7.283   3.986  0.00  0.00     0.007 C 
ATOM      6  C35 MOL d          50.430   7.781   2.904  0.00  0.00    -0.031 C 
ATOM      7  H8  MOL d          48.933   8.776   4.075  0.00  0.00     0.072 H 
ATOM      8  H9  MOL d          48.362   5.878   3.315  0.00  0.00     0.038 H 
ATOM      9  H10 MOL d          47.481   6.897   4.503  0.00  0.00     0.038 H 
ATOM     10  H11 MOL d          49.058   5.181   5.499  0.00  0.00     0.065 H 
ATOM     11  H12 MOL d          49.351   6.876   6.017  0.00  0.00     0.065 H 
ATOM     12  H13 MOL d          52.322   7.000   3.549  0.00  0.00     0.065 H 
ATOM     13  H14 MOL d          51.506   8.072   4.738  0.00  0.00     0.065 H 
ATOM     14  H15 MOL d          50.792   8.761   2.560  0.00  0.00     0.038 H 
ATOM     15  H16 MOL d          50.455   7.067   2.068  0.00  0.00     0.038 H 
ENDROOT
BRANCH   1  16
ATOM     16  N29 MOL d          48.132   8.200   2.252  0.00  0.00    -0.385 N 
ATOM     17  H7  MOL d          47.469   7.472   1.951  0.00  0.00     0.160 HD
BRANCH  16  18
ATOM     18  C11 MOL d          48.161   9.377   1.572  0.00  0.00     0.029 A 
ATOM     19  C10 MOL d          47.415  10.425   2.199  0.00  0.00    -0.046 A 
ATOM     20  C9  MOL d          47.364  11.729   1.557  0.00  0.00    -0.015 A 
ATOM     21  H1  MOL d          46.897  10.250   3.134  0.00  0.00     0.088 H 
ATOM     22  C14 MOL d          48.101  11.974   0.322  0.00  0.00    -0.072 A 
ATOM     23  C13 MOL d          48.841  10.928  -0.324  0.00  0.00    -0.080 A 
ATOM     24  H4  MOL d          48.089  12.965  -0.116  0.00  0.00     0.084 H 
ATOM     25  C12 MOL d          48.872   9.626   0.320  0.00  0.00    -0.058 A 
ATOM     26  H3  MOL d          49.359  11.104  -1.260  0.00  0.00     0.083 H 
ATOM     27  H2  MOL d          49.435   8.822  -0.140  0.00  0.00     0.086 H 
BRANCH  20  28
ATOM     28  C5  MOL d          46.556  12.840   2.101  0.00  0.00     0.036 A 
ATOM     29  S1  MOL d          47.050  13.637   3.643  0.00  0.00    -0.078 SA
ATOM     30  C2  MOL d          45.692  14.799   3.567  0.00  0.00     0.117 A 
ATOM     31  C3  MOL d          44.964  14.579   2.485  0.00  0.00     0.112 A 
ATOM     32  C4  MOL d          45.482  13.496   1.635  0.00  0.00     0.064 A 
ATOM     33 BR19 MOL d          44.685  13.249  -0.029  0.00  0.00    -0.047 Br
BRANCH  30  34
ATOM     34  C6  MOL d          45.457  15.700   4.674  0.00  0.00     0.219 C 
ATOM     35  O7  MOL d          46.487  15.879   5.358  0.00  0.00    -0.643 OA
ATOM     36  O8  MOL d          44.352  16.230   4.927  0.00  0.00    -0.643 OA
ENDBRANCH  30  34
BRANCH  31  37
ATOM     37  O20 MOL d          43.925  15.349   2.196  0.00  0.00    -0.338 OA
BRANCH  37  38
ATOM     38  C21 MOL d          43.936  15.946   0.915  0.00  0.00     0.106 C 
ATOM     39  H5  MOL d          42.982  15.763   0.400  0.00  0.00     0.091 H 
ATOM     40  H6  MOL d          44.762  15.540   0.312  0.00  0.00     0.091 H 
BRANCH  38  41
ATOM     41  C22 MOL d          44.128  17.379   1.139  0.00  0.00     0.198 C 
ATOM     42  O25 MOL d          44.802  17.974   0.278  0.00  0.00    -0.646 OA
ATOM     43  O26 MOL d          43.625  17.927   2.147  0.00  0.00    -0.646 OA
ENDBRANCH  38  41
ENDBRANCH  37  38
ENDBRANCH  31  37
ENDBRANCH  20  28
ENDBRANCH  16  18
ENDBRANCH   1  16
BRANCH   4  44
ATOM     44  S46 MOL d          51.818   4.944   5.217  0.00  0.00     0.232 S 
ATOM     45  O47 MOL d          51.129   4.300   6.311  0.00  0.00    -0.205 OA
ATOM     46  O48 MOL d          53.065   5.645   5.464  0.00  0.00    -0.205 OA
BRANCH  44  47
ATOM     47  C49 MOL d          51.873   3.763   3.852  0.00  0.00     0.070 C 
ATOM     48  H17 MOL d          52.143   2.767   4.234  0.00  0.00     0.066 H 
ATOM     49  H18 MOL d          52.621   4.087   3.112  0.00  0.00     0.066 H 
BRANCH  47  50
ATOM     50  C50 MOL d          50.520   3.706   3.209  0.00  0.00    -0.043 A 
ATOM     51  C53 MOL d          50.383   4.383   1.934  0.00  0.00    -0.076 A 
ATOM     52  C54 MOL d          49.119   4.246   1.243  0.00  0.00    -0.082 A 
ATOM     53  H19 MOL d          51.194   4.967   1.516  0.00  0.00     0.084 H 
ATOM     54  C55 MOL d          48.034   3.484   1.858  0.00  0.00    -0.083 A 
ATOM     55  H20 MOL d          48.977   4.708   0.272  0.00  0.00     0.083 H 
ATOM     56  C56 MOL d          48.192   2.802   3.129  0.00  0.00    -0.082 A 
ATOM     57  H21 MOL d          47.080   3.427   1.348  0.00  0.00     0.083 H 
ATOM     58  C57 MOL d          49.457   2.915   3.835  0.00  0.00    -0.076 A 
ATOM     59  H22 MOL d          47.380   2.217   3.545  0.00  0.00     0.083 H 
ATOM     60  H23 MOL d          49.609   2.431   4.793  0.00  0.00     0.084 H 
ENDBRANCH  47  50
ENDBRANCH  44  47
ENDBRANCH   4  44
TORSDOF 10
ENDMDL
MODEL 7
REMARK VINA RESULT:      -5.7      2.194      3.346
REMARK  10 active torsions:
REMARK  status: ('A' for Active; 'I' for Inactive)
REMARK    1  A    between atoms: C2_2  and  C6_6 
REMARK    2  A    between atoms: C3_3  and  O20_16 
REMARK    3  A    between atoms: C5_5  and  C9_9 
REMARK    4  A    between atoms: C11_11  and  N29_21 
REMARK    5  A    between atoms: O20_16  and  C21_17 
REMARK    6  A    between atoms: C21_17  and  C22_18 
REMARK    7  A    between atoms: N29_21  and  C30_22 
REMARK    8  A    between atoms: N33_25  and  S46_28 
REMARK    9  A    between atoms: S46_28  and  C49_31 
REMARK   10  A    between atoms: C49_31  and  C50_32 
ROOT
ATOM      1  C30 MOL d          48.796   7.014   4.047  0.00  0.00     0.012 C 
ATOM      2  C31 MOL d          48.825   5.593   4.614  0.00  0.00    -0.031 C 
ATOM      3  C32 MOL d          50.119   5.256   5.319  0.00  0.00     0.007 C 
ATOM      4  N33 MOL d          51.213   5.627   4.420  0.00  0.00    -0.310 N 
ATOM      5  C34 MOL d          51.322   6.982   3.875  0.00  0.00     0.007 C 
ATOM      6  C35 MOL d          50.023   7.318   3.191  0.00  0.00    -0.031 C 
ATOM      7  H8  MOL d          48.769   7.729   4.883  0.00  0.00     0.072 H 
ATOM      8  H9  MOL d          48.684   4.885   3.785  0.00  0.00     0.038 H 
ATOM      9  H10 MOL d          47.998   5.487   5.332  0.00  0.00     0.038 H 
ATOM     10  H11 MOL d          50.159   4.178   5.535  0.00  0.00     0.065 H 
ATOM     11  H12 MOL d          50.194   5.822   6.258  0.00  0.00     0.065 H 
ATOM     12  H13 MOL d          52.148   7.027   3.149  0.00  0.00     0.065 H 
ATOM     13  H14 MOL d          51.511   7.697   4.689  0.00  0.00     0.065 H 
ATOM     14  H15 MOL d          50.023   8.391   2.948  0.00  0.00     0.038 H 
ATOM     15  H16 MOL d          49.955   6.733   2.262  0.00  0.00     0.038 H 
ENDROOT
BRANCH   1  16
ATOM     16  N29 MOL d          47.604   7.152   3.268  0.00  0.00    -0.385 N 
ATOM     17  H7  MOL d          46.787   6.574   3.508  0.00  0.00     0.160 HD
BRANCH  16  18
ATOM     18  C11 MOL d          47.507   8.018   2.223  0.00  0.00     0.029 A 
ATOM     19  C10 MOL d          47.212   9.363   2.613  0.00  0.00    -0.046 A 
ATOM     20  C9  MOL d          47.073  10.377   1.580  0.00  0.00    -0.015 A 
ATOM     21  H1  MOL d          47.093   9.621   3.659  0.00  0.00     0.088 H 
ATOM     22  C14 MOL d          47.280  10.035   0.178  0.00  0.00    -0.072 A 
ATOM     23  C13 MOL d          47.562   8.688  -0.228  0.00  0.00    -0.080 A 
ATOM     24  H4  MOL d          47.219  10.814  -0.573  0.00  0.00     0.084 H 
ATOM     25  C12 MOL d          47.684   7.682   0.812  0.00  0.00    -0.058 A 
ATOM     26  H3  MOL d          47.681   8.431  -1.275  0.00  0.00     0.083 H 
ATOM     27  H2  MOL d          47.910   6.658   0.535  0.00  0.00     0.086 H 
BRANCH  20  28
ATOM     28  C5  MOL d          46.697  11.770   1.895  0.00  0.00     0.036 A 
ATOM     29  S1  MOL d          47.588  12.672   3.180  0.00  0.00    -0.078 SA
ATOM     30  C2  MOL d          46.628  14.157   2.911  0.00  0.00     0.117 A 
ATOM     31  C3  MOL d          45.740  13.958   1.952  0.00  0.00     0.112 A 
ATOM     32  C4  MOL d          45.811  12.618   1.350  0.00  0.00     0.064 A 
ATOM     33 BR19 MOL d          44.777  12.297  -0.165  0.00  0.00    -0.047 Br
BRANCH  30  34
ATOM     34  C6  MOL d          46.804  15.293   3.790  0.00  0.00     0.219 C 
ATOM     35  O7  MOL d          46.387  15.060   4.944  0.00  0.00    -0.643 OA
ATOM     36  O8  MOL d          47.304  16.384   3.437  0.00  0.00    -0.643 OA
ENDBRANCH  30  34
BRANCH  31  37
ATOM     37  O20 MOL d          44.942  14.937   1.549  0.00  0.00    -0.338 OA
BRANCH  37  38
ATOM     38  C21 MOL d          44.181  15.568   2.558  0.00  0.00     0.106 C 
ATOM     39  H5  MOL d          44.694  15.490   3.528  0.00  0.00     0.091 H 
ATOM     40  H6  MOL d          43.187  15.104   2.633  0.00  0.00     0.091 H 
BRANCH  38  41
ATOM     41  C22 MOL d          44.061  16.970   2.157  0.00  0.00     0.198 C 
ATOM     42  O25 MOL d          43.606  17.165   1.014  0.00  0.00    -0.646 OA
ATOM     43  O26 MOL d          44.404  17.878   2.947  0.00  0.00    -0.646 OA
ENDBRANCH  38  41
ENDBRANCH  37  38
ENDBRANCH  31  37
ENDBRANCH  20  28
ENDBRANCH  16  18
ENDBRANCH   1  16
BRANCH   4  44
ATOM     44  S46 MOL d          52.675   4.746   4.485  0.00  0.00     0.232 S 
ATOM     45  O47 MOL d          52.289   3.354   4.527  0.00  0.00    -0.205 OA
ATOM     46  O48 MOL d          53.439   5.316   5.579  0.00  0.00    -0.205 OA
BRANCH  44  47
ATOM     47  C49 MOL d          53.358   5.059   2.842  0.00  0.00     0.070 C 
ATOM     48  H17 MOL d          54.451   4.938   2.866  0.00  0.00     0.066 H 
ATOM     49  H18 MOL d          53.110   6.083   2.527  0.00  0.00     0.066 H 
BRANCH  47  50
ATOM     50  C50 MOL d          52.764   4.077   1.877  0.00  0.00    -0.043 A 
ATOM     51  C53 MOL d          53.680   3.126   1.278  0.00  0.00    -0.076 A 
ATOM     52  C54 MOL d          53.111   2.099   0.432  0.00  0.00    -0.082 A 
ATOM     53  H19 MOL d          54.747   3.183   1.457  0.00  0.00     0.084 H 
ATOM     54  C55 MOL d          51.671   2.081   0.181  0.00  0.00    -0.083 A 
ATOM     55  H20 MOL d          53.750   1.346  -0.014  0.00  0.00     0.083 H 
ATOM     56  C56 MOL d          50.766   3.033   0.799  0.00  0.00    -0.082 A 
ATOM     57  H21 MOL d          51.266   1.332  -0.489  0.00  0.00     0.083 H 
ATOM     58  C57 MOL d          51.314   4.066   1.663  0.00  0.00    -0.076 A 
ATOM     59  H22 MOL d          49.699   2.974   0.619  0.00  0.00     0.083 H 
ATOM     60  H23 MOL d          50.672   4.802   2.132  0.00  0.00     0.084 H 
ENDBRANCH  47  50
ENDBRANCH  44  47
ENDBRANCH   4  44
TORSDOF 10
ENDMDL
MODEL 8
REMARK VINA RESULT:      -5.5      3.732     11.687
REMARK  10 active torsions:
REMARK  status: ('A' for Active; 'I' for Inactive)
REMARK    1  A    between atoms: C2_2  and  C6_6 
REMARK    2  A    between atoms: C3_3  and  O20_16 
REMARK    3  A    between atoms: C5_5  and  C9_9 
REMARK    4  A    between atoms: C11_11  and  N29_21 
REMARK    5  A    between atoms: O20_16  and  C21_17 
REMARK    6  A    between atoms: C21_17  and  C22_18 
REMARK    7  A    between atoms: N29_21  and  C30_22 
REMARK    8  A    between atoms: N33_25  and  S46_28 
REMARK    9  A    between atoms: S46_28  and  C49_31 
REMARK   10  A    between atoms: C49_31  and  C50_32 
ROOT
ATOM      1  C30 MOL d          48.641   8.945   0.011  0.00  0.00     0.012 C 
ATOM      2  C31 MOL d          47.739   8.591   1.194  0.00  0.00    -0.031 C 
ATOM      3  C32 MOL d          46.442   9.367   1.211  0.00  0.00     0.007 C 
ATOM      4  N33 MOL d          46.779  10.781   1.042  0.00  0.00    -0.310 N 
ATOM      5  C34 MOL d          47.578  11.241  -0.097  0.00  0.00     0.007 C 
ATOM      6  C35 MOL d          48.861  10.450  -0.118  0.00  0.00    -0.031 C 
ATOM      7  H8  MOL d          48.171   8.582  -0.915  0.00  0.00     0.072 H 
ATOM      8  H9  MOL d          48.285   8.804   2.124  0.00  0.00     0.038 H 
ATOM      9  H10 MOL d          47.503   7.518   1.144  0.00  0.00     0.038 H 
ATOM     10  H11 MOL d          45.925   9.215   2.170  0.00  0.00     0.065 H 
ATOM     11  H12 MOL d          45.793   9.033   0.388  0.00  0.00     0.065 H 
ATOM     12  H13 MOL d          47.803  12.312   0.014  0.00  0.00     0.065 H 
ATOM     13  H14 MOL d          47.023  11.077  -1.032  0.00  0.00     0.065 H 
ATOM     14  H15 MOL d          49.378  10.649  -1.068  0.00  0.00     0.038 H 
ATOM     15  H16 MOL d          49.491  10.784   0.719  0.00  0.00     0.038 H 
ENDROOT
BRANCH   1  16
ATOM     16  N29 MOL d          49.893   8.278   0.197  0.00  0.00    -0.385 N 
ATOM     17  H7  MOL d          50.516   8.160  -0.614  0.00  0.00     0.160 HD
BRANCH  16  18
ATOM     18  C11 MOL d          50.294   7.794   1.403  0.00  0.00     0.029 A 
ATOM     19  C10 MOL d          50.118   6.380   1.544  0.00  0.00    -0.046 A 
ATOM     20  C9  MOL d          50.502   5.749   2.797  0.00  0.00    -0.015 A 
ATOM     21  H1  MOL d          49.707   5.791   0.733  0.00  0.00     0.088 H 
ATOM     22  C14 MOL d          51.098   6.538   3.869  0.00  0.00    -0.072 A 
ATOM     23  C13 MOL d          51.266   7.957   3.746  0.00  0.00    -0.080 A 
ATOM     24  H4  MOL d          51.420   6.042   4.778  0.00  0.00     0.084 H 
ATOM     25  C12 MOL d          50.866   8.578   2.495  0.00  0.00    -0.058 A 
ATOM     26  H3  MOL d          51.677   8.546   4.558  0.00  0.00     0.083 H 
ATOM     27  H2  MOL d          50.994   9.647   2.369  0.00  0.00     0.086 H 
BRANCH  20  28
ATOM     28  C5  MOL d          50.285   4.310   3.048  0.00  0.00     0.036 A 
ATOM     29  S1  MOL d          48.636   3.603   2.852  0.00  0.00    -0.078 SA
ATOM     30  C2  MOL d          49.208   1.958   3.258  0.00  0.00     0.117 A 
ATOM     31  C3  MOL d          50.506   1.976   3.511  0.00  0.00     0.112 A 
ATOM     32  C4  MOL d          51.120   3.303   3.349  0.00  0.00     0.064 A 
ATOM     33 BR19 MOL d          52.976   3.412   3.445  0.00  0.00    -0.047 Br
BRANCH  30  34
ATOM     34  C6  MOL d          48.252   0.881   3.397  0.00  0.00     0.219 C 
ATOM     35  O7  MOL d          47.631   0.944   4.480  0.00  0.00    -0.643 OA
ATOM     36  O8  MOL d          48.073  -0.015   2.543  0.00  0.00    -0.643 OA
ENDBRANCH  30  34
BRANCH  31  37
ATOM     37  O20 MOL d          51.160   0.859   3.794  0.00  0.00    -0.338 OA
BRANCH  37  38
ATOM     38  C21 MOL d          50.979   0.352   5.100  0.00  0.00     0.106 C 
ATOM     39  H5  MOL d          51.026  -0.747   5.093  0.00  0.00     0.091 H 
ATOM     40  H6  MOL d          50.009   0.675   5.504  0.00  0.00     0.091 H 
BRANCH  38  41
ATOM     41  C22 MOL d          52.073   0.903   5.901  0.00  0.00     0.198 C 
ATOM     42  O25 MOL d          53.217   0.542   5.572  0.00  0.00    -0.646 OA
ATOM     43  O26 MOL d          51.823   1.685   6.847  0.00  0.00    -0.646 OA
ENDBRANCH  38  41
ENDBRANCH  37  38
ENDBRANCH  31  37
ENDBRANCH  20  28
ENDBRANCH  16  18
ENDBRANCH   1  16
BRANCH   4  44
ATOM     44  S46 MOL d          45.773  11.964   1.753  0.00  0.00     0.232 S 
ATOM     45  O47 MOL d          45.559  11.527   3.113  0.00  0.00    -0.205 OA
ATOM     46  O48 MOL d          44.640  12.119   0.859  0.00  0.00    -0.205 OA
BRANCH  44  47
ATOM     47  C49 MOL d          46.883  13.389   1.819  0.00  0.00     0.070 C 
ATOM     48  H17 MOL d          47.073  13.757   0.800  0.00  0.00     0.066 H 
ATOM     49  H18 MOL d          47.834  13.095   2.286  0.00  0.00     0.066 H 
BRANCH  47  50
ATOM     50  C50 MOL d          46.234  14.468   2.632  0.00  0.00    -0.043 A 
ATOM     51  C53 MOL d          47.032  15.040   3.698  0.00  0.00    -0.076 A 
ATOM     52  C54 MOL d          46.469  16.159   4.423  0.00  0.00    -0.082 A 
ATOM     53  H19 MOL d          48.012  14.646   3.943  0.00  0.00     0.084 H 
ATOM     54  C55 MOL d          45.128  16.636   4.092  0.00  0.00    -0.083 A 
ATOM     55  H20 MOL d          47.039  16.641   5.209  0.00  0.00     0.083 H 
ATOM     56  C56 MOL d          44.347  16.060   3.012  0.00  0.00    -0.082 A 
ATOM     57  H21 MOL d          44.703  17.447   4.672  0.00  0.00     0.083 H 
ATOM     58  C57 MOL d          44.898  14.944   2.263  0.00  0.00    -0.076 A 
ATOM     59  H22 MOL d          43.368  16.457   2.769  0.00  0.00     0.083 H 
ATOM     60  H23 MOL d          44.340  14.479   1.459  0.00  0.00     0.084 H 
ENDBRANCH  47  50
ENDBRANCH  44  47
ENDBRANCH   4  44
TORSDOF 10
ENDMDL
MODEL 9
REMARK VINA RESULT:      -5.5      4.067     11.536
REMARK  10 active torsions:
REMARK  status: ('A' for Active; 'I' for Inactive)
REMARK    1  A    between atoms: C2_2  and  C6_6 
REMARK    2  A    between atoms: C3_3  and  O20_16 
REMARK    3  A    between atoms: C5_5  and  C9_9 
REMARK    4  A    between atoms: C11_11  and  N29_21 
REMARK    5  A    between atoms: O20_16  and  C21_17 
REMARK    6  A    between atoms: C21_17  and  C22_18 
REMARK    7  A    between atoms: N29_21  and  C30_22 
REMARK    8  A    between atoms: N33_25  and  S46_28 
REMARK    9  A    between atoms: S46_28  and  C49_31 
REMARK   10  A    between atoms: C49_31  and  C50_32 
ROOT
ATOM      1  C30 MOL d          48.301   9.269  -0.611  0.00  0.00     0.012 C 
ATOM      2  C31 MOL d          47.276   8.980   0.487  0.00  0.00    -0.031 C 
ATOM      3  C32 MOL d          46.068   9.886   0.431  0.00  0.00     0.007 C 
ATOM      4  N33 MOL d          46.560  11.262   0.338  0.00  0.00    -0.310 N 
ATOM      5  C34 MOL d          47.490  11.666  -0.719  0.00  0.00     0.007 C 
ATOM      6  C35 MOL d          48.683  10.746  -0.669  0.00  0.00    -0.031 C 
ATOM      7  H8  MOL d          47.872   8.982  -1.582  0.00  0.00     0.072 H 
ATOM      8  H9  MOL d          47.765   9.109   1.463  0.00  0.00     0.038 H 
ATOM      9  H10 MOL d          46.936   7.939   0.382  0.00  0.00     0.038 H 
ATOM     10  H11 MOL d          45.464   9.764   1.342  0.00  0.00     0.065 H 
ATOM     11  H12 MOL d          45.456   9.645  -0.450  0.00  0.00     0.065 H 
ATOM     12  H13 MOL d          47.814  12.704  -0.554  0.00  0.00     0.065 H 
ATOM     13  H14 MOL d          46.999  11.586  -1.699  0.00  0.00     0.065 H 
ATOM     14  H15 MOL d          49.292  10.915  -1.569  0.00  0.00     0.038 H 
ATOM     15  H16 MOL d          49.275  10.990   0.225  0.00  0.00     0.038 H 
ENDROOT
BRANCH   1  16
ATOM     16  N29 MOL d          49.460   8.470  -0.352  0.00  0.00    -0.385 N 
ATOM     17  H7  MOL d          50.132   8.313  -1.116  0.00  0.00     0.160 HD
BRANCH  16  18
ATOM     18  C11 MOL d          49.709   7.911   0.862  0.00  0.00     0.029 A 
ATOM     19  C10 MOL d          49.327   6.534   0.953  0.00  0.00    -0.046 A 
ATOM     20  C9  MOL d          49.536   5.832   2.209  0.00  0.00    -0.015 A 
ATOM     21  H1  MOL d          48.891   6.025   0.102  0.00  0.00     0.088 H 
ATOM     22  C14 MOL d          50.167   6.507   3.337  0.00  0.00    -0.072 A 
ATOM     23  C13 MOL d          50.541   7.890   3.264  0.00  0.00    -0.080 A 
ATOM     24  H4  MOL d          50.356   5.953   4.249  0.00  0.00     0.084 H 
ATOM     25  C12 MOL d          50.314   8.585   2.009  0.00  0.00    -0.058 A 
ATOM     26  H3  MOL d          50.978   8.399   4.116  0.00  0.00     0.083 H 
ATOM     27  H2  MOL d          50.600   9.627   1.921  0.00  0.00     0.086 H 
BRANCH  20  28
ATOM     28  C5  MOL d          49.102   4.434   2.406  0.00  0.00     0.036 A 
ATOM     29  S1  MOL d          49.044   3.737   4.070  0.00  0.00    -0.078 SA
ATOM     30  C2  MOL d          48.423   2.169   3.475  0.00  0.00     0.117 A 
ATOM     31  C3  MOL d          48.288   2.201   2.161  0.00  0.00     0.112 A 
ATOM     32  C4  MOL d          48.633   3.500   1.563  0.00  0.00     0.064 A 
ATOM     33 BR19 MOL d          48.259   3.745  -0.244  0.00  0.00    -0.047 Br
BRANCH  30  34
ATOM     34  C6  MOL d          48.274   1.062   4.395  0.00  0.00     0.219 C 
ATOM     35  O7  MOL d          49.311   0.868   5.065  0.00  0.00    -0.643 OA
ATOM     36  O8  MOL d          47.236   0.373   4.504  0.00  0.00    -0.643 OA
ENDBRANCH  30  34
BRANCH  31  37
ATOM     37  O20 MOL d          47.800   1.161   1.501  0.00  0.00    -0.338 OA
BRANCH  37  38
ATOM     38  C21 MOL d          46.626   1.400   0.752  0.00  0.00     0.106 C 
ATOM     39  H5  MOL d          46.571   0.709  -0.102  0.00  0.00     0.091 H 
ATOM     40  H6  MOL d          46.611   2.437   0.386  0.00  0.00     0.091 H 
BRANCH  38  41
ATOM     41  C22 MOL d          45.508   1.167   1.668  0.00  0.00     0.198 C 
ATOM     42  O25 MOL d          45.185  -0.023   1.831  0.00  0.00    -0.646 OA
ATOM     43  O26 MOL d          44.947   2.136   2.228  0.00  0.00    -0.646 OA
ENDBRANCH  38  41
ENDBRANCH  37  38
ENDBRANCH  31  37
ENDBRANCH  20  28
ENDBRANCH  16  18
ENDBRANCH   1  16
BRANCH   4  44
ATOM     44  S46 MOL d          45.627  12.524   1.011  0.00  0.00     0.232 S 
ATOM     45  O47 MOL d          44.507  11.879   1.657  0.00  0.00    -0.205 OA
ATOM     46  O48 MOL d          45.392  13.468  -0.066  0.00  0.00    -0.205 OA
BRANCH  44  47
ATOM     47  C49 MOL d          46.721  13.125   2.317  0.00  0.00     0.070 C 
ATOM     48  H17 MOL d          47.766  13.070   1.978  0.00  0.00     0.066 H 
ATOM     49  H18 MOL d          46.595  12.507   3.218  0.00  0.00     0.066 H 
BRANCH  47  50
ATOM     50  C50 MOL d          46.365  14.548   2.627  0.00  0.00    -0.043 A 
ATOM     51  C53 MOL d          47.446  15.397   3.088  0.00  0.00    -0.076 A 
ATOM     52  C54 MOL d          47.150  16.800   3.286  0.00  0.00    -0.082 A 
ATOM     53  H19 MOL d          48.435  14.998   3.277  0.00  0.00     0.084 H 
ATOM     54  C55 MOL d          45.793  17.294   3.061  0.00  0.00    -0.083 A 
ATOM     55  H20 MOL d          47.931  17.482   3.600  0.00  0.00     0.083 H 
ATOM     56  C56 MOL d          44.725  16.432   2.587  0.00  0.00    -0.082 A 
ATOM     57  H21 MOL d          45.577  18.338   3.255  0.00  0.00     0.083 H 
ATOM     58  C57 MOL d          45.002  15.023   2.369  0.00  0.00    -0.076 A 
ATOM     59  H22 MOL d          43.736  16.835   2.398  0.00  0.00     0.083 H 
ATOM     60  H23 MOL d          44.228  14.345   2.029  0.00  0.00     0.084 H 
ENDBRANCH  47  50
ENDBRANCH  44  47
ENDBRANCH   4  44
TORSDOF 10
ENDMDL
