MODEL 1
REMARK VINA RESULT:      -7.7      0.000      0.000
REMARK  4 active torsions:
REMARK  status: ('A' for Active; 'I' for Inactive)
REMARK    1  A    between atoms: C2_2  and  N14_12 
REMARK    2  A    between atoms: C15_13  and  C5_5 
REMARK    3  A    between atoms: C16_15  and  C15_13 
REMARK    4  A    between atoms: C7_14  and  C16_15 
ROOT
ATOM      1  C15 V15 d          -1.566   3.090  11.157  0.00  0.00    -0.020 C 
ATOM      2  H10 V15 d          -1.047   3.194  12.121  0.00  0.00     0.042 H 
ATOM      3  H11 V15 d          -1.329   2.111  10.716  0.00  0.00     0.042 H 
ENDROOT
BRANCH   1   4
ATOM      4  C5  V15 d          -1.005   4.142  10.232  0.00  0.00     0.059 A 
ATOM      5  C4  V15 d          -1.768   4.910   9.385  0.00  0.00     0.007 A 
ATOM      6  C3  V15 d          -1.116   5.867   8.567  0.00  0.00     0.261 A 
ATOM      7  H2  V15 d          -2.849   4.786   9.343  0.00  0.00     0.095 H 
ATOM      8  N1  V15 d           0.240   5.991   8.625  0.00  0.00    -0.155 N 
ATOM      9  O15 V15 d          -1.766   6.576   7.808  0.00  0.00    -0.268 OA
ATOM     10  C2  V15 d           0.943   5.208   9.503  0.00  0.00     0.701 A 
ATOM     11  H1  V15 d           0.715   6.644   8.035  0.00  0.00     0.187 HD
ATOM     12  N6  V15 d           0.323   4.340  10.270  0.00  0.00    -0.070 NA
BRANCH  10  13
ATOM     13  N14 V15 d           2.307   5.350   9.632  0.00  0.00    -0.233 N 
ATOM     14  H8  V15 d           2.871   5.663   8.829  0.00  0.00     0.174 HD
ATOM     15  H9  V15 d           2.764   5.144  10.532  0.00  0.00     0.174 HD
ENDBRANCH  10  13
ENDBRANCH   1   4
BRANCH   1  16
ATOM     16  C16 V15 d          -3.076   3.104  11.449  0.00  0.00    -0.036 C 
ATOM     17  H12 V15 d          -3.558   3.851  10.802  0.00  0.00     0.040 H 
ATOM     18  H13 V15 d          -3.234   3.375  12.503  0.00  0.00     0.040 H 
BRANCH  16  19
ATOM     19  C7  V15 d          -3.698   1.756  11.190  0.00  0.00    -0.058 A 
ATOM     20  C8  V15 d          -5.077   1.594  11.054  0.00  0.00    -0.077 A 
ATOM     21  C9  V15 d          -5.617   0.338  10.828  0.00  0.00    -0.082 A 
ATOM     22  H3  V15 d          -5.730   2.456  11.126  0.00  0.00     0.084 H 
ATOM     23  C10 V15 d          -4.772  -0.763  10.713  0.00  0.00    -0.083 A 
ATOM     24  H4  V15 d          -6.690   0.213  10.740  0.00  0.00     0.083 H 
ATOM     25  C11 V15 d          -3.397  -0.608  10.834  0.00  0.00    -0.082 A 
ATOM     26  H5  V15 d          -5.190  -1.746  10.529  0.00  0.00     0.083 H 
ATOM     27  C12 V15 d          -2.858   0.652  11.066  0.00  0.00    -0.077 A 
ATOM     28  H6  V15 d          -2.744  -1.469  10.747  0.00  0.00     0.083 H 
ATOM     29  H7  V15 d          -1.785   0.776  11.151  0.00  0.00     0.084 H 
ENDBRANCH  16  19
ENDBRANCH   1  16
TORSDOF 4
ENDMDL
MODEL 2
REMARK VINA RESULT:      -6.9      3.572      6.254
REMARK  4 active torsions:
REMARK  status: ('A' for Active; 'I' for Inactive)
REMARK    1  A    between atoms: C2_2  and  N14_12 
REMARK    2  A    between atoms: C15_13  and  C5_5 
REMARK    3  A    between atoms: C16_15  and  C15_13 
REMARK    4  A    between atoms: C7_14  and  C16_15 
ROOT
ATOM      1  C15 V15 d          -1.940   2.390  11.813  0.00  0.00    -0.020 C 
ATOM      2  H10 V15 d          -1.580   1.712  12.600  0.00  0.00     0.042 H 
ATOM      3  H11 V15 d          -2.290   3.327  12.269  0.00  0.00     0.042 H 
ENDROOT
BRANCH   1   4
ATOM      4  C5  V15 d          -3.137   1.732  11.171  0.00  0.00     0.059 A 
ATOM      5  C4  V15 d          -3.058   0.676  10.294  0.00  0.00     0.007 A 
ATOM      6  C3  V15 d          -4.261   0.146   9.762  0.00  0.00     0.261 A 
ATOM      7  H2  V15 d          -2.093   0.255  10.015  0.00  0.00     0.095 H 
ATOM      8  N1  V15 d          -5.455   0.703  10.114  0.00  0.00    -0.155 N 
ATOM      9  O15 V15 d          -4.229  -0.801   8.986  0.00  0.00    -0.268 OA
ATOM     10  C2  V15 d          -5.468   1.743  11.005  0.00  0.00     0.701 A 
ATOM     11  H1  V15 d          -6.309   0.356   9.726  0.00  0.00     0.187 HD
ATOM     12  N6  V15 d          -4.347   2.209  11.507  0.00  0.00    -0.070 NA
BRANCH  10  13
ATOM     13  N14 V15 d          -6.660   2.287  11.430  0.00  0.00    -0.233 N 
ATOM     14  H8  V15 d          -6.659   3.094  12.071  0.00  0.00     0.174 HD
ATOM     15  H9  V15 d          -7.554   1.888  11.107  0.00  0.00     0.174 HD
ENDBRANCH  10  13
ENDBRANCH   1   4
BRANCH   1  16
ATOM     16  C16 V15 d          -0.734   2.738  10.924  0.00  0.00    -0.036 C 
ATOM     17  H12 V15 d          -0.695   2.032  10.082  0.00  0.00     0.040 H 
ATOM     18  H13 V15 d           0.186   2.649  11.520  0.00  0.00     0.040 H 
BRANCH  16  19
ATOM     19  C7  V15 d          -0.836   4.141  10.384  0.00  0.00    -0.058 A 
ATOM     20  C8  V15 d          -2.062   4.714  10.047  0.00  0.00    -0.077 A 
ATOM     21  C9  V15 d          -2.119   6.003   9.542  0.00  0.00    -0.082 A 
ATOM     22  H3  V15 d          -2.977   4.147  10.181  0.00  0.00     0.084 H 
ATOM     23  C10 V15 d          -0.945   6.736   9.393  0.00  0.00    -0.083 A 
ATOM     24  H4  V15 d          -3.072   6.439   9.265  0.00  0.00     0.083 H 
ATOM     25  C11 V15 d           0.279   6.177   9.739  0.00  0.00    -0.082 A 
ATOM     26  H5  V15 d          -0.985   7.747   9.006  0.00  0.00     0.083 H 
ATOM     27  C12 V15 d           0.334   4.882  10.241  0.00  0.00    -0.077 A 
ATOM     28  H6  V15 d           1.191   6.751   9.619  0.00  0.00     0.083 H 
ATOM     29  H7  V15 d           1.288   4.449  10.520  0.00  0.00     0.084 H 
ENDBRANCH  16  19
ENDBRANCH   1  16
TORSDOF 4
ENDMDL
MODEL 3
REMARK VINA RESULT:      -6.8      1.433      2.356
REMARK  4 active torsions:
REMARK  status: ('A' for Active; 'I' for Inactive)
REMARK    1  A    between atoms: C2_2  and  N14_12 
REMARK    2  A    between atoms: C15_13  and  C5_5 
REMARK    3  A    between atoms: C16_15  and  C15_13 
REMARK    4  A    between atoms: C7_14  and  C16_15 
ROOT
ATOM      1  C15 V15 d          -1.712   3.000  11.162  0.00  0.00    -0.020 C 
ATOM      2  H10 V15 d          -1.284   3.066  12.173  0.00  0.00     0.042 H 
ATOM      3  H11 V15 d          -1.457   2.027  10.718  0.00  0.00     0.042 H 
ENDROOT
BRANCH   1   4
ATOM      4  C5  V15 d          -1.042   4.061  10.324  0.00  0.00     0.059 A 
ATOM      5  C4  V15 d           0.299   4.358  10.385  0.00  0.00     0.007 A 
ATOM      6  C3  V15 d           0.806   5.379   9.541  0.00  0.00     0.261 A 
ATOM      7  H2  V15 d           0.958   3.821  11.066  0.00  0.00     0.095 H 
ATOM      8  N1  V15 d          -0.043   6.049   8.711  0.00  0.00    -0.155 N 
ATOM      9  O15 V15 d           1.997   5.662   9.561  0.00  0.00    -0.268 OA
ATOM     10  C2  V15 d          -1.367   5.694   8.684  0.00  0.00     0.701 A 
ATOM     11  H1  V15 d           0.295   6.788   8.129  0.00  0.00     0.187 HD
ATOM     12  N6  V15 d          -1.818   4.731   9.457  0.00  0.00    -0.070 NA
BRANCH  10  13
ATOM     13  N14 V15 d          -2.240   6.308   7.813  0.00  0.00    -0.233 N 
ATOM     14  H8  V15 d          -3.248   6.105   7.866  0.00  0.00     0.174 HD
ATOM     15  H9  V15 d          -1.884   6.970   7.108  0.00  0.00     0.174 HD
ENDBRANCH  10  13
ENDBRANCH   1   4
BRANCH   1  16
ATOM     16  C16 V15 d          -3.242   3.046  11.311  0.00  0.00    -0.036 C 
ATOM     17  H12 V15 d          -3.653   3.749  10.572  0.00  0.00     0.040 H 
ATOM     18  H13 V15 d          -3.492   3.392  12.325  0.00  0.00     0.040 H 
BRANCH  16  19
ATOM     19  C7  V15 d          -3.857   1.687  11.091  0.00  0.00    -0.058 A 
ATOM     20  C8  V15 d          -3.077   0.539  10.958  0.00  0.00    -0.077 A 
ATOM     21  C9  V15 d          -3.675  -0.693  10.745  0.00  0.00    -0.082 A 
ATOM     22  H3  V15 d          -1.997   0.610  11.023  0.00  0.00     0.084 H 
ATOM     23  C10 V15 d          -5.063  -0.783  10.685  0.00  0.00    -0.083 A 
ATOM     24  H4  V15 d          -3.065  -1.582  10.625  0.00  0.00     0.083 H 
ATOM     25  C11 V15 d          -5.847   0.355  10.829  0.00  0.00    -0.082 A 
ATOM     26  H5  V15 d          -5.534  -1.746  10.526  0.00  0.00     0.083 H 
ATOM     27  C12 V15 d          -5.244   1.590  11.038  0.00  0.00    -0.077 A 
ATOM     28  H6  V15 d          -6.926   0.279  10.779  0.00  0.00     0.083 H 
ATOM     29  H7  V15 d          -5.856   2.477  11.161  0.00  0.00     0.084 H 
ENDBRANCH  16  19
ENDBRANCH   1  16
TORSDOF 4
ENDMDL
MODEL 4
REMARK VINA RESULT:      -6.2      3.426      6.278
REMARK  4 active torsions:
REMARK  status: ('A' for Active; 'I' for Inactive)
REMARK    1  A    between atoms: C2_2  and  N14_12 
REMARK    2  A    between atoms: C15_13  and  C5_5 
REMARK    3  A    between atoms: C16_15  and  C15_13 
REMARK    4  A    between atoms: C7_14  and  C16_15 
ROOT
ATOM      1  C15 V15 d          -2.490   2.757  11.560  0.00  0.00    -0.020 C 
ATOM      2  H10 V15 d          -2.380   2.390  12.592  0.00  0.00     0.042 H 
ATOM      3  H11 V15 d          -2.973   3.745  11.572  0.00  0.00     0.042 H 
ENDROOT
BRANCH   1   4
ATOM      4  C5  V15 d          -3.426   1.812  10.848  0.00  0.00     0.059 A 
ATOM      5  C4  V15 d          -4.722   1.573  11.237  0.00  0.00     0.007 A 
ATOM      6  C3  V15 d          -5.499   0.661  10.478  0.00  0.00     0.261 A 
ATOM      7  H2  V15 d          -5.144   2.073  12.107  0.00  0.00     0.095 H 
ATOM      8  N1  V15 d          -4.942   0.034   9.403  0.00  0.00    -0.155 N 
ATOM      9  O15 V15 d          -6.661   0.432  10.789  0.00  0.00    -0.268 OA
ATOM     10  C2  V15 d          -3.649   0.327   9.057  0.00  0.00     0.701 A 
ATOM     11  H1  V15 d          -5.470  -0.632   8.875  0.00  0.00     0.187 HD
ATOM     12  N6  V15 d          -2.949   1.192   9.756  0.00  0.00    -0.070 NA
BRANCH  10  13
ATOM     13  N14 V15 d          -3.076  -0.241   7.940  0.00  0.00    -0.233 N 
ATOM     14  H8  V15 d          -3.287  -1.218   7.694  0.00  0.00     0.174 HD
ATOM     15  H9  V15 d          -2.436   0.312   7.351  0.00  0.00     0.174 HD
ENDBRANCH  10  13
ENDBRANCH   1   4
BRANCH   1  16
ATOM     16  C16 V15 d          -1.074   2.949  10.992  0.00  0.00    -0.036 C 
ATOM     17  H12 V15 d          -0.892   2.189  10.219  0.00  0.00     0.040 H 
ATOM     18  H13 V15 d          -0.342   2.827  11.805  0.00  0.00     0.040 H 
BRANCH  16  19
ATOM     19  C7  V15 d          -0.907   4.318  10.383  0.00  0.00    -0.058 A 
ATOM     20  C8  V15 d           0.351   4.874  10.153  0.00  0.00    -0.077 A 
ATOM     21  C9  V15 d           0.468   6.140   9.601  0.00  0.00    -0.082 A 
ATOM     22  H3  V15 d           1.243   4.312  10.406  0.00  0.00     0.084 H 
ATOM     23  C10 V15 d          -0.680   6.848   9.256  0.00  0.00    -0.083 A 
ATOM     24  H4  V15 d           1.447   6.576   9.440  0.00  0.00     0.083 H 
ATOM     25  C11 V15 d          -1.936   6.296   9.471  0.00  0.00    -0.082 A 
ATOM     26  H5  V15 d          -0.593   7.836   8.818  0.00  0.00     0.083 H 
ATOM     27  C12 V15 d          -2.051   5.028  10.029  0.00  0.00    -0.077 A 
ATOM     28  H6  V15 d          -2.827   6.853   9.203  0.00  0.00     0.083 H 
ATOM     29  H7  V15 d          -3.031   4.592  10.187  0.00  0.00     0.084 H 
ENDBRANCH  16  19
ENDBRANCH   1  16
TORSDOF 4
ENDMDL
MODEL 5
REMARK VINA RESULT:      -5.5      3.578      6.393
REMARK  4 active torsions:
REMARK  status: ('A' for Active; 'I' for Inactive)
REMARK    1  A    between atoms: C2_2  and  N14_12 
REMARK    2  A    between atoms: C15_13  and  C5_5 
REMARK    3  A    between atoms: C16_15  and  C15_13 
REMARK    4  A    between atoms: C7_14  and  C16_15 
ROOT
ATOM      1  C15 V15 d          -3.239   3.383   9.434  0.00  0.00    -0.020 C 
ATOM      2  H10 V15 d          -4.113   4.046   9.524  0.00  0.00     0.042 H 
ATOM      3  H11 V15 d          -2.726   3.579   8.481  0.00  0.00     0.042 H 
ENDROOT
BRANCH   1   4
ATOM      4  C5  V15 d          -3.759   1.967   9.378  0.00  0.00     0.059 A 
ATOM      5  C4  V15 d          -4.744   1.541   8.519  0.00  0.00     0.007 A 
ATOM      6  C3  V15 d          -5.141   0.181   8.565  0.00  0.00     0.261 A 
ATOM      7  H2  V15 d          -5.209   2.233   7.818  0.00  0.00     0.095 H 
ATOM      8  N1  V15 d          -4.556  -0.661   9.464  0.00  0.00    -0.155 N 
ATOM      9  O15 V15 d          -6.008  -0.236   7.808  0.00  0.00    -0.268 OA
ATOM     10  C2  V15 d          -3.568  -0.179  10.282  0.00  0.00     0.701 A 
ATOM     11  H1  V15 d          -4.845  -1.616   9.526  0.00  0.00     0.187 HD
ATOM     12  N6  V15 d          -3.195   1.079  10.213  0.00  0.00    -0.070 NA
BRANCH  10  13
ATOM     13  N14 V15 d          -2.913  -1.017  11.158  0.00  0.00    -0.233 N 
ATOM     14  H8  V15 d          -3.227  -1.991  11.272  0.00  0.00     0.174 HD
ATOM     15  H9  V15 d          -2.109  -0.669  11.701  0.00  0.00     0.174 HD
ENDBRANCH  10  13
ENDBRANCH   1   4
BRANCH   1  16
ATOM     16  C16 V15 d          -2.264   3.759  10.562  0.00  0.00    -0.036 C 
ATOM     17  H12 V15 d          -1.723   2.857  10.882  0.00  0.00     0.040 H 
ATOM     18  H13 V15 d          -2.837   4.164  11.410  0.00  0.00     0.040 H 
BRANCH  16  19
ATOM     19  C7  V15 d          -1.267   4.793  10.105  0.00  0.00    -0.058 A 
ATOM     20  C8  V15 d          -1.655   5.923   9.385  0.00  0.00    -0.077 A 
ATOM     21  C9  V15 d          -0.711   6.848   8.970  0.00  0.00    -0.082 A 
ATOM     22  H3  V15 d          -2.702   6.079   9.149  0.00  0.00     0.084 H 
ATOM     23  C10 V15 d           0.630   6.656   9.296  0.00  0.00    -0.083 A 
ATOM     24  H4  V15 d          -1.013   7.717   8.396  0.00  0.00     0.083 H 
ATOM     25  C11 V15 d           1.022   5.540  10.023  0.00  0.00    -0.082 A 
ATOM     26  H5  V15 d           1.371   7.381   8.979  0.00  0.00     0.083 H 
ATOM     27  C12 V15 d           0.073   4.610  10.434  0.00  0.00    -0.077 A 
ATOM     28  H6  V15 d           2.067   5.393  10.271  0.00  0.00     0.083 H 
ATOM     29  H7  V15 d           0.377   3.744  11.010  0.00  0.00     0.084 H 
ENDBRANCH  16  19
ENDBRANCH   1  16
TORSDOF 4
ENDMDL
MODEL 6
REMARK VINA RESULT:      -5.3      2.834      3.959
REMARK  4 active torsions:
REMARK  status: ('A' for Active; 'I' for Inactive)
REMARK    1  A    between atoms: C2_2  and  N14_12 
REMARK    2  A    between atoms: C15_13  and  C5_5 
REMARK    3  A    between atoms: C16_15  and  C15_13 
REMARK    4  A    between atoms: C7_14  and  C16_15 
ROOT
ATOM      1  C15 V15 d          -2.991   0.631   8.095  0.00  0.00    -0.020 C 
ATOM      2  H10 V15 d          -2.491  -0.324   8.312  0.00  0.00     0.042 H 
ATOM      3  H11 V15 d          -2.588   1.052   7.162  0.00  0.00     0.042 H 
ENDROOT
BRANCH   1   4
ATOM      4  C5  V15 d          -2.631   1.586   9.207  0.00  0.00     0.059 A 
ATOM      5  C4  V15 d          -2.169   1.193  10.441  0.00  0.00     0.007 A 
ATOM      6  C3  V15 d          -1.865   2.192  11.399  0.00  0.00     0.261 A 
ATOM      7  H2  V15 d          -2.041   0.137  10.677  0.00  0.00     0.095 H 
ATOM      8  N1  V15 d          -2.052   3.506  11.085  0.00  0.00    -0.155 N 
ATOM      9  O15 V15 d          -1.442   1.879  12.505  0.00  0.00    -0.268 OA
ATOM     10  C2  V15 d          -2.498   3.834   9.832  0.00  0.00     0.701 A 
ATOM     11  H1  V15 d          -1.866   4.220  11.760  0.00  0.00     0.187 HD
ATOM     12  N6  V15 d          -2.756   2.897   8.947  0.00  0.00    -0.070 NA
BRANCH  10  13
ATOM     13  N14 V15 d          -2.639   5.153   9.461  0.00  0.00    -0.233 N 
ATOM     14  H8  V15 d          -2.244   5.899  10.051  0.00  0.00     0.174 HD
ATOM     15  H9  V15 d          -3.140   5.394   8.593  0.00  0.00     0.174 HD
ENDBRANCH  10  13
ENDBRANCH   1   4
BRANCH   1  16
ATOM     16  C16 V15 d          -4.477   0.322   7.851  0.00  0.00    -0.036 C 
ATOM     17  H12 V15 d          -4.559  -0.631   7.308  0.00  0.00     0.040 H 
ATOM     18  H13 V15 d          -4.916   1.128   7.244  0.00  0.00     0.040 H 
BRANCH  16  19
ATOM     19  C7  V15 d          -5.237   0.215   9.148  0.00  0.00    -0.058 A 
ATOM     20  C8  V15 d          -5.247  -0.959   9.902  0.00  0.00    -0.077 A 
ATOM     21  C9  V15 d          -5.966  -1.026  11.085  0.00  0.00    -0.082 A 
ATOM     22  H3  V15 d          -4.690  -1.824   9.560  0.00  0.00     0.084 H 
ATOM     23  C10 V15 d          -6.661   0.094  11.532  0.00  0.00    -0.083 A 
ATOM     24  H4  V15 d          -5.986  -1.946  11.659  0.00  0.00     0.083 H 
ATOM     25  C11 V15 d          -6.645   1.271  10.793  0.00  0.00    -0.082 A 
ATOM     26  H5  V15 d          -7.218   0.048  12.460  0.00  0.00     0.083 H 
ATOM     27  C12 V15 d          -5.928   1.334   9.604  0.00  0.00    -0.077 A 
ATOM     28  H6  V15 d          -7.191   2.138  11.144  0.00  0.00     0.083 H 
ATOM     29  H7  V15 d          -5.906   2.255   9.033  0.00  0.00     0.084 H 
ENDBRANCH  16  19
ENDBRANCH   1  16
TORSDOF 4
ENDMDL
