MODEL 1
REMARK VINA RESULT:      -8.0      0.000      0.000
REMARK  2 active torsions:
REMARK  status: ('A' for Active; 'I' for Inactive)
REMARK    1  A    between atoms: C6_3  and  S_5 
REMARK    2  A    between atoms: S_5  and  N_10 
ROOT
ATOM      1  C4  SKF d          28.780  46.089  16.756  0.00  0.00    -0.075 A 
ATOM      2  C5  SKF d          28.408  45.475  15.567  0.00  0.00    -0.060 A 
ATOM      3  C6  SKF d          28.061  44.119  15.569  0.00  0.00     0.080 A 
ATOM      4  C7  SKF d          28.088  43.395  16.755  0.00  0.00    -0.052 A 
ATOM      5  C8  SKF d          28.461  44.007  17.937  0.00  0.00    -0.025 A 
ATOM      6  C9  SKF d          28.808  45.362  17.941  0.00  0.00    -0.049 A 
ATOM      7  C1  SKF d          28.409  43.227  19.226  0.00  0.00     0.106 C 
ATOM      8  C2  SKF d          28.875  45.370  20.399  0.00  0.00     0.086 C 
ATOM      9  C3  SKF d          29.499  45.933  19.141  0.00  0.00    -0.018 C 
ATOM     10  N1  SKF d          29.100  43.900  20.351  0.00  0.00    -0.071 N 
ATOM     11  H1  SKF d          29.049  47.139  16.760  0.00  0.00     0.084 H 
ATOM     12  H2  SKF d          28.387  46.042  14.644  0.00  0.00     0.085 H 
ATOM     13  H3  SKF d          27.817  42.346  16.752  0.00  0.00     0.086 H 
ATOM     14  H6  SKF d          28.884  42.249  19.060  0.00  0.00     0.083 H 
ATOM     15  H7  SKF d          27.354  43.081  19.503  0.00  0.00     0.083 H 
ATOM     16  H8  SKF d          27.797  45.590  20.422  0.00  0.00     0.076 H 
ATOM     17  H9  SKF d          29.356  45.800  21.289  0.00  0.00     0.076 H 
ATOM     18  H10 SKF d          29.394  47.028  19.138  0.00  0.00     0.042 H 
ATOM     19  H11 SKF d          30.566  45.667  19.110  0.00  0.00     0.042 H 
ATOM     20  H12 SKF d          30.090  43.732  20.263  0.00  0.00     0.277 HD
ATOM     21  H13 SKF d          28.767  43.499  21.214  0.00  0.00     0.277 HD
ENDROOT
BRANCH   3  22
ATOM     22  S   SKF d          27.594  43.324  14.066  0.00  0.00     0.256 S 
ATOM     23  O1  SKF d          26.159  43.159  13.991  0.00  0.00    -0.201 OA
ATOM     24  O2  SKF d          28.221  42.038  13.902  0.00  0.00    -0.201 OA
BRANCH  22  25
ATOM     25  N   SKF d          28.063  44.262  12.889  0.00  0.00    -0.324 N 
ATOM     26  H4  SKF d          27.818  45.231  12.894  0.00  0.00     0.169 HD
ATOM     27  H5  SKF d          28.605  43.887  12.138  0.00  0.00     0.169 HD
ENDBRANCH  22  25
ENDBRANCH   3  22
TORSDOF 2
ENDMDL
MODEL 2
REMARK VINA RESULT:      -7.2      3.326      5.504
REMARK  2 active torsions:
REMARK  status: ('A' for Active; 'I' for Inactive)
REMARK    1  A    between atoms: C6_3  and  S_5 
REMARK    2  A    between atoms: S_5  and  N_10 
ROOT
ATOM      1  C4  SKF d          27.619  42.395  17.049  0.00  0.00    -0.075 A 
ATOM      2  C5  SKF d          28.080  42.990  18.216  0.00  0.00    -0.060 A 
ATOM      3  C6  SKF d          28.639  44.272  18.163  0.00  0.00     0.080 A 
ATOM      4  C7  SKF d          28.730  44.942  16.950  0.00  0.00    -0.052 A 
ATOM      5  C8  SKF d          28.274  44.347  15.789  0.00  0.00    -0.025 A 
ATOM      6  C9  SKF d          27.713  43.066  15.836  0.00  0.00    -0.049 A 
ATOM      7  C1  SKF d          28.308  45.120  14.494  0.00  0.00     0.106 C 
ATOM      8  C2  SKF d          27.002  43.257  13.490  0.00  0.00     0.086 C 
ATOM      9  C3  SKF d          27.510  42.313  14.557  0.00  0.00    -0.018 C 
ATOM     10  N1  SKF d          28.067  44.279  13.298  0.00  0.00    -0.071 N 
ATOM     11  H1  SKF d          27.185  41.402  17.085  0.00  0.00     0.084 H 
ATOM     12  H2  SKF d          28.007  42.465  19.162  0.00  0.00     0.085 H 
ATOM     13  H3  SKF d          29.162  45.935  16.913  0.00  0.00     0.086 H 
ATOM     14  H6  SKF d          29.297  45.590  14.396  0.00  0.00     0.083 H 
ATOM     15  H7  SKF d          27.533  45.900  14.533  0.00  0.00     0.083 H 
ATOM     16  H8  SKF d          26.068  43.737  13.818  0.00  0.00     0.076 H 
ATOM     17  H9  SKF d          26.824  42.711  12.551  0.00  0.00     0.076 H 
ATOM     18  H10 SKF d          26.775  41.511  14.717  0.00  0.00     0.042 H 
ATOM     19  H11 SKF d          28.466  41.874  14.235  0.00  0.00     0.042 H 
ATOM     20  H12 SKF d          28.925  43.804  13.064  0.00  0.00     0.277 HD
ATOM     21  H13 SKF d          27.797  44.880  12.536  0.00  0.00     0.277 HD
ENDROOT
BRANCH   3  22
ATOM     22  S   SKF d          29.236  45.038  19.636  0.00  0.00     0.256 S 
ATOM     23  O1  SKF d          29.115  46.478  19.555  0.00  0.00    -0.201 OA
ATOM     24  O2  SKF d          30.606  44.699  19.920  0.00  0.00    -0.201 OA
BRANCH  22  25
ATOM     25  N   SKF d          28.336  44.514  20.819  0.00  0.00    -0.324 N 
ATOM     26  H4  SKF d          28.760  44.184  21.662  0.00  0.00     0.169 HD
ATOM     27  H5  SKF d          27.340  44.512  20.727  0.00  0.00     0.169 HD
ENDBRANCH  22  25
ENDBRANCH   3  22
TORSDOF 2
ENDMDL
MODEL 3
REMARK VINA RESULT:      -6.7      0.939      1.079
REMARK  2 active torsions:
REMARK  status: ('A' for Active; 'I' for Inactive)
REMARK    1  A    between atoms: C6_3  and  S_5 
REMARK    2  A    between atoms: S_5  and  N_10 
ROOT
ATOM      1  C4  SKF d          29.107  46.373  17.114  0.00  0.00    -0.075 A 
ATOM      2  C5  SKF d          28.756  45.918  15.850  0.00  0.00    -0.060 A 
ATOM      3  C6  SKF d          28.286  44.609  15.694  0.00  0.00     0.080 A 
ATOM      4  C7  SKF d          28.172  43.774  16.798  0.00  0.00    -0.052 A 
ATOM      5  C8  SKF d          28.524  44.228  18.055  0.00  0.00    -0.025 A 
ATOM      6  C9  SKF d          28.993  45.536  18.218  0.00  0.00    -0.049 A 
ATOM      7  C1  SKF d          28.319  43.335  19.253  0.00  0.00     0.106 C 
ATOM      8  C2  SKF d          28.905  45.297  20.663  0.00  0.00     0.086 C 
ATOM      9  C3  SKF d          29.657  45.917  19.505  0.00  0.00    -0.018 C 
ATOM     10  N1  SKF d          28.996  43.824  20.477  0.00  0.00    -0.071 N 
ATOM     11  H1  SKF d          29.471  47.386  17.241  0.00  0.00     0.084 H 
ATOM     12  H2  SKF d          28.846  46.571  14.990  0.00  0.00     0.085 H 
ATOM     13  H3  SKF d          27.806  42.761  16.673  0.00  0.00     0.086 H 
ATOM     14  H6  SKF d          28.711  42.336  19.013  0.00  0.00     0.083 H 
ATOM     15  H7  SKF d          27.240  43.267  19.456  0.00  0.00     0.083 H 
ATOM     16  H8  SKF d          27.853  45.619  20.651  0.00  0.00     0.076 H 
ATOM     17  H9  SKF d          29.366  45.590  21.618  0.00  0.00     0.076 H 
ATOM     18  H10 SKF d          29.653  47.011  19.609  0.00  0.00     0.042 H 
ATOM     19  H11 SKF d          30.694  45.552  19.504  0.00  0.00     0.042 H 
ATOM     20  H12 SKF d          29.970  43.569  20.425  0.00  0.00     0.277 HD
ATOM     21  H13 SKF d          28.574  43.376  21.275  0.00  0.00     0.277 HD
ENDROOT
BRANCH   3  22
ATOM     22  S   SKF d          27.845  44.013  14.094  0.00  0.00     0.256 S 
ATOM     23  O1  SKF d          27.741  45.101  13.146  0.00  0.00    -0.201 OA
ATOM     24  O2  SKF d          26.606  43.278  14.099  0.00  0.00    -0.201 OA
BRANCH  22  25
ATOM     25  N   SKF d          28.999  43.042  13.634  0.00  0.00    -0.324 N 
ATOM     26  H4  SKF d          29.433  43.168  12.742  0.00  0.00     0.169 HD
ATOM     27  H5  SKF d          29.297  42.301  14.235  0.00  0.00     0.169 HD
ENDBRANCH  22  25
ENDBRANCH   3  22
TORSDOF 2
ENDMDL
MODEL 4
REMARK VINA RESULT:      -6.6      3.550      5.180
REMARK  2 active torsions:
REMARK  status: ('A' for Active; 'I' for Inactive)
REMARK    1  A    between atoms: C6_3  and  S_5 
REMARK    2  A    between atoms: S_5  and  N_10 
ROOT
ATOM      1  C4  SKF d          28.783  46.131  16.219  0.00  0.00    -0.075 A 
ATOM      2  C5  SKF d          29.076  46.158  17.576  0.00  0.00    -0.060 A 
ATOM      3  C6  SKF d          28.881  45.006  18.347  0.00  0.00     0.080 A 
ATOM      4  C7  SKF d          28.399  43.845  17.755  0.00  0.00    -0.052 A 
ATOM      5  C8  SKF d          28.106  43.821  16.405  0.00  0.00    -0.025 A 
ATOM      6  C9  SKF d          28.300  44.969  15.629  0.00  0.00    -0.049 A 
ATOM      7  C1  SKF d          27.659  42.532  15.763  0.00  0.00     0.106 C 
ATOM      8  C2  SKF d          27.860  43.693  13.574  0.00  0.00     0.086 C 
ATOM      9  C3  SKF d          27.697  45.033  14.259  0.00  0.00    -0.018 C 
ATOM     10  N1  SKF d          27.107  42.711  14.400  0.00  0.00    -0.071 N 
ATOM     11  H1  SKF d          28.933  47.020  15.617  0.00  0.00     0.084 H 
ATOM     12  H2  SKF d          29.452  47.064  18.035  0.00  0.00     0.085 H 
ATOM     13  H3  SKF d          28.251  42.955  18.355  0.00  0.00     0.086 H 
ATOM     14  H6  SKF d          26.882  42.079  16.397  0.00  0.00     0.083 H 
ATOM     15  H7  SKF d          28.523  41.854  15.703  0.00  0.00     0.083 H 
ATOM     16  H8  SKF d          28.923  43.415  13.526  0.00  0.00     0.076 H 
ATOM     17  H9  SKF d          27.444  43.732  12.556  0.00  0.00     0.076 H 
ATOM     18  H10 SKF d          28.207  45.809  13.670  0.00  0.00     0.042 H 
ATOM     19  H11 SKF d          26.628  45.276  14.340  0.00  0.00     0.042 H 
ATOM     20  H12 SKF d          26.154  43.027  14.481  0.00  0.00     0.277 HD
ATOM     21  H13 SKF d          27.126  41.819  13.930  0.00  0.00     0.277 HD
ENDROOT
BRANCH   3  22
ATOM     22  S   SKF d          29.241  45.026  20.074  0.00  0.00     0.256 S 
ATOM     23  O1  SKF d          28.033  44.867  20.856  0.00  0.00    -0.201 OA
ATOM     24  O2  SKF d          29.909  46.233  20.486  0.00  0.00    -0.201 OA
BRANCH  22  25
ATOM     25  N   SKF d          30.197  43.805  20.354  0.00  0.00    -0.324 N 
ATOM     26  H4  SKF d          29.813  42.908  20.573  0.00  0.00     0.169 HD
ATOM     27  H5  SKF d          31.188  43.927  20.314  0.00  0.00     0.169 HD
ENDBRANCH  22  25
ENDBRANCH   3  22
TORSDOF 2
ENDMDL
