MODEL 1
REMARK VINA RESULT:      -5.1      0.000      0.000
REMARK  5 active torsions:
REMARK  status: ('A' for Active; 'I' for Inactive)
REMARK    1  A    between atoms: C4_2  and  C2_3 
REMARK       I    between atoms: C4_2  and  N_7 
REMARK    2  A    between atoms: C2_3  and  C1_4 
REMARK    3  A    between atoms: C2_3  and  C3_6 
REMARK    4  A    between atoms: C1_4  and  S_5 
REMARK    5  A    between atoms: C8_8  and  C9_9 
ROOT
ATOM      1  O1  X8Z d          29.926   3.515 -43.388  0.00  0.00    -0.273 OA
ATOM      2  C4  X8Z d          28.905   4.237 -43.615  0.00  0.00     0.225 C 
ATOM      3  N   X8Z d          29.069   5.453 -44.181  0.00  0.00    -0.337 N 
ATOM      4  C8  X8Z d          30.432   5.998 -44.537  0.00  0.00     0.098 C 
ATOM      5  C5  X8Z d          28.010   6.469 -44.536  0.00  0.00    -0.001 C 
ATOM      6  C6  X8Z d          28.727   7.652 -45.074  0.00  0.00    -0.048 C 
ATOM      7  C7  X8Z d          30.177   7.303 -45.240  0.00  0.00    -0.035 C 
ATOM      8  H8  X8Z d          30.956   5.301 -45.207  0.00  0.00     0.089 H 
ATOM      9  H9  X8Z d          27.435   6.747 -43.640  0.00  0.00     0.064 H 
ATOM     10  H10 X8Z d          27.329   6.059 -45.296  0.00  0.00     0.064 H 
ATOM     11  H11 X8Z d          28.627   8.495 -44.374  0.00  0.00     0.035 H 
ATOM     12  H12 X8Z d          28.299   7.932 -46.049  0.00  0.00     0.035 H 
ATOM     13  H13 X8Z d          30.415   7.201 -46.310  0.00  0.00     0.036 H 
ATOM     14  H14 X8Z d          30.803   8.092 -44.798  0.00  0.00     0.036 H 
ENDROOT
BRANCH   2  15
ATOM     15  C2  X8Z d          27.523   3.706 -43.223  0.00  0.00     0.028 C 
ATOM     16  H1  X8Z d          26.788   3.957 -44.002  0.00  0.00     0.055 H 
BRANCH  15  17
ATOM     17  C1  X8Z d          27.612   2.181 -43.097  0.00  0.00    -0.015 C 
ATOM     18  H2  X8Z d          27.293   1.901 -42.082  0.00  0.00     0.049 H 
ATOM     19  H3  X8Z d          28.660   1.884 -43.247  0.00  0.00     0.049 H 
BRANCH  17  20
ATOM     20  S   X8Z d          26.602   1.275 -44.270  0.00  0.00    -0.181 SA
ATOM     21  H4  X8Z d          26.623   0.292 -44.042  0.00  0.00     0.101 HD
ENDBRANCH  17  20
ENDBRANCH  15  17
BRANCH  15  22
ATOM     22  C3  X8Z d          27.121   4.397 -41.910  0.00  0.00    -0.064 C 
ATOM     23  H5  X8Z d          27.395   5.461 -41.958  0.00  0.00     0.028 H 
ATOM     24  H6  X8Z d          27.646   3.920 -41.069  0.00  0.00     0.028 H 
ATOM     25  H7  X8Z d          26.035   4.304 -41.764  0.00  0.00     0.028 H 
ENDBRANCH  15  22
ENDBRANCH   2  15
BRANCH   4  26
ATOM     26  C9  X8Z d          31.285   6.218 -43.266  0.00  0.00     0.196 C 
ATOM     27  O3  X8Z d          30.869   6.836 -42.306  0.00  0.00    -0.646 OA
ATOM     28  O2  X8Z d          32.466   5.709 -43.271  0.00  0.00    -0.646 OA
ENDBRANCH   4  26
TORSDOF 5
ENDMDL
MODEL 2
REMARK VINA RESULT:      -4.4      2.579      4.658
REMARK  5 active torsions:
REMARK  status: ('A' for Active; 'I' for Inactive)
REMARK    1  A    between atoms: C4_2  and  C2_3 
REMARK       I    between atoms: C4_2  and  N_7 
REMARK    2  A    between atoms: C2_3  and  C1_4 
REMARK    3  A    between atoms: C2_3  and  C3_6 
REMARK    4  A    between atoms: C1_4  and  S_5 
REMARK    5  A    between atoms: C8_8  and  C9_9 
ROOT
ATOM      1  O1  X8Z d          30.788   4.871 -43.742  0.00  0.00    -0.273 OA
ATOM      2  C4  X8Z d          29.931   5.790 -43.940  0.00  0.00     0.225 C 
ATOM      3  N   X8Z d          28.671   5.627 -43.482  0.00  0.00    -0.337 N 
ATOM      4  C8  X8Z d          28.232   4.377 -42.757  0.00  0.00     0.098 C 
ATOM      5  C5  X8Z d          27.504   6.578 -43.604  0.00  0.00    -0.001 C 
ATOM      6  C6  X8Z d          26.340   5.893 -42.987  0.00  0.00    -0.048 C 
ATOM      7  C7  X8Z d          26.818   4.638 -42.317  0.00  0.00    -0.035 C 
ATOM      8  H8  X8Z d          28.875   4.200 -41.883  0.00  0.00     0.089 H 
ATOM      9  H9  X8Z d          27.300   6.795 -44.662  0.00  0.00     0.064 H 
ATOM     10  H10 X8Z d          27.719   7.516 -43.072  0.00  0.00     0.064 H 
ATOM     11  H11 X8Z d          25.604   5.640 -43.764  0.00  0.00     0.035 H 
ATOM     12  H12 X8Z d          25.874   6.556 -42.242  0.00  0.00     0.035 H 
ATOM     13  H13 X8Z d          26.786   4.763 -41.224  0.00  0.00     0.036 H 
ATOM     14  H14 X8Z d          26.176   3.793 -42.608  0.00  0.00     0.036 H 
ENDROOT
BRANCH   2  15
ATOM     15  C2  X8Z d          30.360   7.044 -44.707  0.00  0.00     0.028 C 
ATOM     16  H1  X8Z d          29.473   7.595 -45.055  0.00  0.00     0.055 H 
BRANCH  15  17
ATOM     17  C1  X8Z d          31.159   7.941 -43.754  0.00  0.00    -0.015 C 
ATOM     18  H2  X8Z d          31.217   8.947 -44.196  0.00  0.00     0.049 H 
ATOM     19  H3  X8Z d          32.172   7.523 -43.658  0.00  0.00     0.049 H 
BRANCH  17  20
ATOM     20  S   X8Z d          30.458   8.093 -42.110  0.00  0.00    -0.181 SA
ATOM     21  H4  X8Z d          29.456   7.990 -42.161  0.00  0.00     0.101 HD
ENDBRANCH  17  20
ENDBRANCH  15  17
BRANCH  15  22
ATOM     22  C3  X8Z d          31.176   6.582 -45.925  0.00  0.00    -0.064 C 
ATOM     23  H5  X8Z d          32.235   6.487 -45.641  0.00  0.00     0.028 H 
ATOM     24  H6  X8Z d          31.077   7.320 -46.734  0.00  0.00     0.028 H 
ATOM     25  H7  X8Z d          30.800   5.608 -46.270  0.00  0.00     0.028 H 
ENDBRANCH  15  22
ENDBRANCH   2  15
BRANCH   4  26
ATOM     26  C9  X8Z d          28.298   3.148 -43.693  0.00  0.00     0.196 C 
ATOM     27  O3  X8Z d          27.957   3.201 -44.857  0.00  0.00    -0.646 OA
ATOM     28  O2  X8Z d          28.737   2.055 -43.175  0.00  0.00    -0.646 OA
ENDBRANCH   4  26
TORSDOF 5
ENDMDL
MODEL 3
REMARK VINA RESULT:      -4.3      1.662      1.923
REMARK  5 active torsions:
REMARK  status: ('A' for Active; 'I' for Inactive)
REMARK    1  A    between atoms: C4_2  and  C2_3 
REMARK       I    between atoms: C4_2  and  N_7 
REMARK    2  A    between atoms: C2_3  and  C1_4 
REMARK    3  A    between atoms: C2_3  and  C3_6 
REMARK    4  A    between atoms: C1_4  and  S_5 
REMARK    5  A    between atoms: C8_8  and  C9_9 
ROOT
ATOM      1  O1  X8Z d          30.399   3.889 -43.154  0.00  0.00    -0.273 OA
ATOM      2  C4  X8Z d          29.320   4.482 -43.471  0.00  0.00     0.225 C 
ATOM      3  N   X8Z d          29.374   5.570 -44.270  0.00  0.00    -0.337 N 
ATOM      4  C8  X8Z d          30.680   6.125 -44.786  0.00  0.00     0.098 C 
ATOM      5  C5  X8Z d          28.230   6.421 -44.767  0.00  0.00    -0.001 C 
ATOM      6  C6  X8Z d          28.839   7.521 -45.557  0.00  0.00    -0.048 C 
ATOM      7  C7  X8Z d          30.306   7.245 -45.718  0.00  0.00    -0.035 C 
ATOM      8  H8  X8Z d          31.234   5.347 -45.331  0.00  0.00     0.089 H 
ATOM      9  H9  X8Z d          27.665   6.831 -43.917  0.00  0.00     0.064 H 
ATOM     10  H10 X8Z d          27.559   5.824 -45.401  0.00  0.00     0.064 H 
ATOM     11  H11 X8Z d          28.698   8.477 -45.031  0.00  0.00     0.035 H 
ATOM     12  H12 X8Z d          28.361   7.573 -46.547  0.00  0.00     0.035 H 
ATOM     13  H13 X8Z d          30.517   6.950 -46.757  0.00  0.00     0.036 H 
ATOM     14  H14 X8Z d          30.884   8.146 -45.467  0.00  0.00     0.036 H 
ENDROOT
BRANCH   2  15
ATOM     15  C2  X8Z d          27.995   3.946 -42.921  0.00  0.00     0.028 C 
ATOM     16  H1  X8Z d          28.165   3.427 -41.965  0.00  0.00     0.055 H 
BRANCH  15  17
ATOM     17  C1  X8Z d          27.057   5.135 -42.681  0.00  0.00    -0.015 C 
ATOM     18  H2  X8Z d          26.021   4.766 -42.708  0.00  0.00     0.049 H 
ATOM     19  H3  X8Z d          27.210   5.861 -43.492  0.00  0.00     0.049 H 
BRANCH  17  20
ATOM     20  S   X8Z d          27.309   5.980 -41.119  0.00  0.00    -0.181 SA
ATOM     21  H4  X8Z d          27.361   5.301 -40.375  0.00  0.00     0.101 HD
ENDBRANCH  17  20
ENDBRANCH  15  17
BRANCH  15  22
ATOM     22  C3  X8Z d          27.445   2.942 -43.947  0.00  0.00    -0.064 C 
ATOM     23  H5  X8Z d          28.271   2.562 -44.566  0.00  0.00     0.028 H 
ATOM     24  H6  X8Z d          26.705   3.443 -44.589  0.00  0.00     0.028 H 
ATOM     25  H7  X8Z d          26.965   2.104 -43.420  0.00  0.00     0.028 H 
ENDBRANCH  15  22
ENDBRANCH   2  15
BRANCH   4  26
ATOM     26  C9  X8Z d          31.553   6.649 -43.622  0.00  0.00     0.196 C 
ATOM     27  O3  X8Z d          31.249   7.631 -42.975  0.00  0.00    -0.646 OA
ATOM     28  O2  X8Z d          32.627   5.989 -43.367  0.00  0.00    -0.646 OA
ENDBRANCH   4  26
TORSDOF 5
ENDMDL
MODEL 4
REMARK VINA RESULT:      -4.2      2.643      3.126
REMARK  5 active torsions:
REMARK  status: ('A' for Active; 'I' for Inactive)
REMARK    1  A    between atoms: C4_2  and  C2_3 
REMARK       I    between atoms: C4_2  and  N_7 
REMARK    2  A    between atoms: C2_3  and  C1_4 
REMARK    3  A    between atoms: C2_3  and  C3_6 
REMARK    4  A    between atoms: C1_4  and  S_5 
REMARK    5  A    between atoms: C8_8  and  C9_9 
ROOT
ATOM      1  O1  X8Z d          28.804   4.650 -42.601  0.00  0.00    -0.273 OA
ATOM      2  C4  X8Z d          28.962   5.908 -42.504  0.00  0.00     0.225 C 
ATOM      3  N   X8Z d          29.928   6.510 -43.233  0.00  0.00    -0.337 N 
ATOM      4  C8  X8Z d          30.846   5.736 -44.148  0.00  0.00     0.098 C 
ATOM      5  C5  X8Z d          30.290   7.975 -43.274  0.00  0.00    -0.001 C 
ATOM      6  C6  X8Z d          31.456   8.093 -44.185  0.00  0.00    -0.048 C 
ATOM      7  C7  X8Z d          31.683   6.768 -44.852  0.00  0.00    -0.035 C 
ATOM      8  H8  X8Z d          30.258   5.161 -44.878  0.00  0.00     0.089 H 
ATOM      9  H9  X8Z d          30.557   8.328 -42.267  0.00  0.00     0.064 H 
ATOM     10  H10 X8Z d          29.446   8.566 -43.658  0.00  0.00     0.064 H 
ATOM     11  H11 X8Z d          32.349   8.375 -43.608  0.00  0.00     0.035 H 
ATOM     12  H12 X8Z d          31.253   8.861 -44.947  0.00  0.00     0.035 H 
ATOM     13  H13 X8Z d          31.387   6.828 -45.910  0.00  0.00     0.036 H 
ATOM     14  H14 X8Z d          32.746   6.494 -44.783  0.00  0.00     0.036 H 
ENDROOT
BRANCH   2  15
ATOM     15  C2  X8Z d          28.058   6.694 -41.551  0.00  0.00     0.028 C 
ATOM     16  H1  X8Z d          28.626   7.005 -40.662  0.00  0.00     0.055 H 
BRANCH  15  17
ATOM     17  C1  X8Z d          27.558   7.945 -42.283  0.00  0.00    -0.015 C 
ATOM     18  H2  X8Z d          28.433   8.523 -42.614  0.00  0.00     0.049 H 
ATOM     19  H3  X8Z d          26.968   8.545 -41.575  0.00  0.00     0.049 H 
BRANCH  17  20
ATOM     20  S   X8Z d          26.536   7.610 -43.719  0.00  0.00    -0.181 SA
ATOM     21  H4  X8Z d          26.463   8.445 -44.280  0.00  0.00     0.101 HD
ENDBRANCH  17  20
ENDBRANCH  15  17
BRANCH  15  22
ATOM     22  C3  X8Z d          26.921   5.755 -41.118  0.00  0.00    -0.064 C 
ATOM     23  H5  X8Z d          26.059   5.890 -41.788  0.00  0.00     0.028 H 
ATOM     24  H6  X8Z d          26.623   5.991 -40.085  0.00  0.00     0.028 H 
ATOM     25  H7  X8Z d          27.266   4.712 -41.169  0.00  0.00     0.028 H 
ENDBRANCH  15  22
ENDBRANCH   2  15
BRANCH   4  26
ATOM     26  C9  X8Z d          31.738   4.766 -43.338  0.00  0.00     0.196 C 
ATOM     27  O3  X8Z d          32.040   3.665 -43.753  0.00  0.00    -0.646 OA
ATOM     28  O2  X8Z d          32.152   5.184 -42.194  0.00  0.00    -0.646 OA
ENDBRANCH   4  26
TORSDOF 5
ENDMDL
MODEL 5
REMARK VINA RESULT:      -3.8      2.438      4.429
REMARK  5 active torsions:
REMARK  status: ('A' for Active; 'I' for Inactive)
REMARK    1  A    between atoms: C4_2  and  C2_3 
REMARK       I    between atoms: C4_2  and  N_7 
REMARK    2  A    between atoms: C2_3  and  C1_4 
REMARK    3  A    between atoms: C2_3  and  C3_6 
REMARK    4  A    between atoms: C1_4  and  S_5 
REMARK    5  A    between atoms: C8_8  and  C9_9 
ROOT
ATOM      1  O1  X8Z d          31.071   4.233 -43.712  0.00  0.00    -0.273 OA
ATOM      2  C4  X8Z d          30.417   5.322 -43.763  0.00  0.00     0.225 C 
ATOM      3  N   X8Z d          29.200   5.388 -43.180  0.00  0.00    -0.337 N 
ATOM      4  C8  X8Z d          28.574   4.203 -42.485  0.00  0.00     0.098 C 
ATOM      5  C5  X8Z d          28.257   6.567 -43.119  0.00  0.00    -0.001 C 
ATOM      6  C6  X8Z d          27.037   6.091 -42.419  0.00  0.00    -0.048 C 
ATOM      7  C7  X8Z d          27.296   4.714 -41.879  0.00  0.00    -0.035 C 
ATOM      8  H8  X8Z d          29.244   3.828 -41.698  0.00  0.00     0.089 H 
ATOM      9  H9  X8Z d          28.006   6.905 -44.135  0.00  0.00     0.064 H 
ATOM     10  H10 X8Z d          28.718   7.394 -42.560  0.00  0.00     0.064 H 
ATOM     11  H11 X8Z d          26.194   6.059 -43.125  0.00  0.00     0.035 H 
ATOM     12  H12 X8Z d          26.796   6.774 -41.591  0.00  0.00     0.035 H 
ATOM     13  H13 X8Z d          27.395   4.757 -40.784  0.00  0.00     0.036 H 
ATOM     14  H14 X8Z d          26.464   4.047 -42.148  0.00  0.00     0.036 H 
ENDROOT
BRANCH   2  15
ATOM     15  C2  X8Z d          31.030   6.518 -44.497  0.00  0.00     0.028 C 
ATOM     16  H1  X8Z d          32.110   6.360 -44.639  0.00  0.00     0.055 H 
BRANCH  15  17
ATOM     17  C1  X8Z d          30.360   6.634 -45.871  0.00  0.00    -0.015 C 
ATOM     18  H2  X8Z d          29.874   5.673 -46.099  0.00  0.00     0.049 H 
ATOM     19  H3  X8Z d          31.141   6.836 -46.618  0.00  0.00     0.049 H 
BRANCH  17  20
ATOM     20  S   X8Z d          29.123   7.927 -45.992  0.00  0.00    -0.181 SA
ATOM     21  H4  X8Z d          28.293   7.558 -46.428  0.00  0.00     0.101 HD
ENDBRANCH  17  20
ENDBRANCH  15  17
BRANCH  15  22
ATOM     22  C3  X8Z d          30.814   7.758 -43.615  0.00  0.00    -0.064 C 
ATOM     23  H5  X8Z d          30.569   7.440 -42.591  0.00  0.00     0.028 H 
ATOM     24  H6  X8Z d          29.986   8.357 -44.021  0.00  0.00     0.028 H 
ATOM     25  H7  X8Z d          31.732   8.363 -43.602  0.00  0.00     0.028 H 
ENDBRANCH  15  22
ENDBRANCH   2  15
BRANCH   4  26
ATOM     26  C9  X8Z d          28.286   3.065 -43.492  0.00  0.00     0.196 C 
ATOM     27  O3  X8Z d          28.415   1.893 -43.199  0.00  0.00    -0.646 OA
ATOM     28  O2  X8Z d          27.898   3.420 -44.666  0.00  0.00    -0.646 OA
ENDBRANCH   4  26
TORSDOF 5
ENDMDL
MODEL 6
REMARK VINA RESULT:      -3.7      2.117      2.724
REMARK  5 active torsions:
REMARK  status: ('A' for Active; 'I' for Inactive)
REMARK    1  A    between atoms: C4_2  and  C2_3 
REMARK       I    between atoms: C4_2  and  N_7 
REMARK    2  A    between atoms: C2_3  and  C1_4 
REMARK    3  A    between atoms: C2_3  and  C3_6 
REMARK    4  A    between atoms: C1_4  and  S_5 
REMARK    5  A    between atoms: C8_8  and  C9_9 
ROOT
ATOM      1  O1  X8Z d          28.966   5.069 -44.745  0.00  0.00    -0.273 OA
ATOM      2  C4  X8Z d          28.910   5.101 -43.475  0.00  0.00     0.225 C 
ATOM      3  N   X8Z d          29.559   6.083 -42.811  0.00  0.00    -0.337 N 
ATOM      4  C8  X8Z d          30.371   7.137 -43.524  0.00  0.00     0.098 C 
ATOM      5  C5  X8Z d          29.630   6.312 -41.320  0.00  0.00    -0.001 C 
ATOM      6  C6  X8Z d          30.517   7.485 -41.118  0.00  0.00    -0.048 C 
ATOM      7  C7  X8Z d          30.824   8.093 -42.455  0.00  0.00    -0.035 C 
ATOM      8  H8  X8Z d          29.747   7.661 -44.262  0.00  0.00     0.089 H 
ATOM      9  H9  X8Z d          30.050   5.427 -40.819  0.00  0.00     0.064 H 
ATOM     10  H10 X8Z d          28.628   6.520 -40.918  0.00  0.00     0.064 H 
ATOM     11  H11 X8Z d          31.452   7.163 -40.634  0.00  0.00     0.035 H 
ATOM     12  H12 X8Z d          30.011   8.226 -40.481  0.00  0.00     0.035 H 
ATOM     13  H13 X8Z d          30.290   9.049 -42.560  0.00  0.00     0.036 H 
ATOM     14  H14 X8Z d          31.907   8.266 -42.546  0.00  0.00     0.036 H 
ENDROOT
BRANCH   2  15
ATOM     15  C2  X8Z d          28.119   4.013 -42.743  0.00  0.00     0.028 C 
ATOM     16  H1  X8Z d          28.732   3.575 -41.942  0.00  0.00     0.055 H 
BRANCH  15  17
ATOM     17  C1  X8Z d          26.876   4.660 -42.121  0.00  0.00    -0.015 C 
ATOM     18  H2  X8Z d          27.124   4.962 -41.092  0.00  0.00     0.049 H 
ATOM     19  H3  X8Z d          26.073   3.908 -42.099  0.00  0.00     0.049 H 
BRANCH  17  20
ATOM     20  S   X8Z d          26.267   6.102 -42.996  0.00  0.00    -0.181 SA
ATOM     21  H4  X8Z d          26.890   6.319 -43.758  0.00  0.00     0.101 HD
ENDBRANCH  17  20
ENDBRANCH  15  17
BRANCH  15  22
ATOM     22  C3  X8Z d          27.780   2.922 -43.771  0.00  0.00    -0.064 C 
ATOM     23  H5  X8Z d          27.055   2.220 -43.334  0.00  0.00     0.028 H 
ATOM     24  H6  X8Z d          28.696   2.380 -44.046  0.00  0.00     0.028 H 
ATOM     25  H7  X8Z d          27.345   3.386 -44.669  0.00  0.00     0.028 H 
ENDBRANCH  15  22
ENDBRANCH   2  15
BRANCH   4  26
ATOM     26  C9  X8Z d          31.585   6.503 -44.243  0.00  0.00     0.196 C 
ATOM     27  O3  X8Z d          32.417   5.845 -43.651  0.00  0.00    -0.646 OA
ATOM     28  O2  X8Z d          31.673   6.706 -45.510  0.00  0.00    -0.646 OA
ENDBRANCH   4  26
TORSDOF 5
ENDMDL
MODEL 7
REMARK VINA RESULT:      -3.3      2.990      4.727
REMARK  5 active torsions:
REMARK  status: ('A' for Active; 'I' for Inactive)
REMARK    1  A    between atoms: C4_2  and  C2_3 
REMARK       I    between atoms: C4_2  and  N_7 
REMARK    2  A    between atoms: C2_3  and  C1_4 
REMARK    3  A    between atoms: C2_3  and  C3_6 
REMARK    4  A    between atoms: C1_4  and  S_5 
REMARK    5  A    between atoms: C8_8  and  C9_9 
ROOT
ATOM      1  O1  X8Z d          28.658   7.460 -44.271  0.00  0.00    -0.273 OA
ATOM      2  C4  X8Z d          29.046   6.249 -44.298  0.00  0.00     0.225 C 
ATOM      3  N   X8Z d          28.358   5.321 -43.596  0.00  0.00    -0.337 N 
ATOM      4  C8  X8Z d          27.153   5.674 -42.759  0.00  0.00     0.098 C 
ATOM      5  C5  X8Z d          28.637   3.841 -43.484  0.00  0.00    -0.001 C 
ATOM      6  C6  X8Z d          27.624   3.294 -42.547  0.00  0.00    -0.048 C 
ATOM      7  C7  X8Z d          26.617   4.366 -42.245  0.00  0.00    -0.035 C 
ATOM      8  H8  X8Z d          26.395   6.177 -43.378  0.00  0.00     0.089 H 
ATOM      9  H9  X8Z d          29.650   3.674 -43.089  0.00  0.00     0.064 H 
ATOM     10  H10 X8Z d          28.544   3.360 -44.468  0.00  0.00     0.064 H 
ATOM     11  H11 X8Z d          28.115   2.975 -41.615  0.00  0.00     0.035 H 
ATOM     12  H12 X8Z d          27.120   2.432 -43.010  0.00  0.00     0.035 H 
ATOM     13  H13 X8Z d          25.664   4.132 -42.744  0.00  0.00     0.036 H 
ATOM     14  H14 X8Z d          26.457   4.431 -41.159  0.00  0.00     0.036 H 
ENDROOT
BRANCH   2  15
ATOM     15  C2  X8Z d          30.290   5.890 -45.115  0.00  0.00     0.028 C 
ATOM     16  H1  X8Z d          30.012   5.243 -45.960  0.00  0.00     0.055 H 
BRANCH  15  17
ATOM     17  C1  X8Z d          30.897   7.187 -45.662  0.00  0.00    -0.015 C 
ATOM     18  H2  X8Z d          30.075   7.843 -45.985  0.00  0.00     0.049 H 
ATOM     19  H3  X8Z d          31.526   6.934 -46.528  0.00  0.00     0.049 H 
BRANCH  17  20
ATOM     20  S   X8Z d          31.904   8.093 -44.486  0.00  0.00    -0.181 SA
ATOM     21  H4  X8Z d          31.313   8.476 -43.764  0.00  0.00     0.101 HD
ENDBRANCH  17  20
ENDBRANCH  15  17
BRANCH  15  22
ATOM     22  C3  X8Z d          31.244   5.123 -44.186  0.00  0.00    -0.064 C 
ATOM     23  H5  X8Z d          32.228   5.029 -44.669  0.00  0.00     0.028 H 
ATOM     24  H6  X8Z d          30.835   4.121 -43.987  0.00  0.00     0.028 H 
ATOM     25  H7  X8Z d          31.351   5.670 -43.238  0.00  0.00     0.028 H 
ENDBRANCH  15  22
ENDBRANCH   2  15
BRANCH   4  26
ATOM     26  C9  X8Z d          27.549   6.602 -41.587  0.00  0.00     0.196 C 
ATOM     27  O3  X8Z d          26.785   7.426 -41.126  0.00  0.00    -0.646 OA
ATOM     28  O2  X8Z d          28.738   6.458 -41.118  0.00  0.00    -0.646 OA
ENDBRANCH   4  26
TORSDOF 5
ENDMDL
MODEL 8
REMARK VINA RESULT:      -2.5      2.202      2.986
REMARK  5 active torsions:
REMARK  status: ('A' for Active; 'I' for Inactive)
REMARK    1  A    between atoms: C4_2  and  C2_3 
REMARK       I    between atoms: C4_2  and  N_7 
REMARK    2  A    between atoms: C2_3  and  C1_4 
REMARK    3  A    between atoms: C2_3  and  C3_6 
REMARK    4  A    between atoms: C1_4  and  S_5 
REMARK    5  A    between atoms: C8_8  and  C9_9 
ROOT
ATOM      1  O1  X8Z d          28.753   5.220 -41.460  0.00  0.00    -0.273 OA
ATOM      2  C4  X8Z d          29.025   4.919 -42.665  0.00  0.00     0.225 C 
ATOM      3  N   X8Z d          29.013   5.889 -43.606  0.00  0.00    -0.337 N 
ATOM      4  C8  X8Z d          28.664   7.321 -43.281  0.00  0.00     0.098 C 
ATOM      5  C5  X8Z d          29.301   5.760 -45.083  0.00  0.00    -0.001 C 
ATOM      6  C6  X8Z d          29.091   7.107 -45.670  0.00  0.00    -0.048 C 
ATOM      7  C7  X8Z d          28.879   8.091 -44.556  0.00  0.00    -0.035 C 
ATOM      8  H8  X8Z d          29.327   7.704 -42.491  0.00  0.00     0.089 H 
ATOM      9  H9  X8Z d          28.614   5.034 -45.541  0.00  0.00     0.064 H 
ATOM     10  H10 X8Z d          30.339   5.433 -45.241  0.00  0.00     0.064 H 
ATOM     11  H11 X8Z d          28.207   7.092 -46.324  0.00  0.00     0.035 H 
ATOM     12  H12 X8Z d          29.977   7.397 -46.255  0.00  0.00     0.035 H 
ATOM     13  H13 X8Z d          29.764   8.737 -44.456  0.00  0.00     0.036 H 
ATOM     14  H14 X8Z d          27.995   8.710 -44.770  0.00  0.00     0.036 H 
ENDROOT
BRANCH   2  15
ATOM     15  C2  X8Z d          29.344   3.461 -43.007  0.00  0.00     0.028 C 
ATOM     16  H1  X8Z d          29.193   2.824 -42.123  0.00  0.00     0.055 H 
BRANCH  15  17
ATOM     17  C1  X8Z d          28.388   3.007 -44.116  0.00  0.00    -0.015 C 
ATOM     18  H2  X8Z d          28.989   2.599 -44.943  0.00  0.00     0.049 H 
ATOM     19  H3  X8Z d          27.828   3.886 -44.468  0.00  0.00     0.049 H 
BRANCH  17  20
ATOM     20  S   X8Z d          27.206   1.755 -43.616  0.00  0.00    -0.181 SA
ATOM     21  H4  X8Z d          27.492   0.859 -43.980  0.00  0.00     0.101 HD
ENDBRANCH  17  20
ENDBRANCH  15  17
BRANCH  15  22
ATOM     22  C3  X8Z d          30.823   3.401 -43.424  0.00  0.00    -0.064 C 
ATOM     23  H5  X8Z d          31.143   2.350 -43.488  0.00  0.00     0.028 H 
ATOM     24  H6  X8Z d          31.436   3.927 -42.678  0.00  0.00     0.028 H 
ATOM     25  H7  X8Z d          30.947   3.882 -44.405  0.00  0.00     0.028 H 
ENDBRANCH  15  22
ENDBRANCH   2  15
BRANCH   4  26
ATOM     26  C9  X8Z d          27.195   7.437 -42.812  0.00  0.00     0.196 C 
ATOM     27  O3  X8Z d          26.268   7.027 -43.481  0.00  0.00    -0.646 OA
ATOM     28  O2  X8Z d          26.999   7.990 -41.667  0.00  0.00    -0.646 OA
ENDBRANCH   4  26
TORSDOF 5
ENDMDL
