MODEL 1
REMARK VINA RESULT:      -6.1      0.000      0.000
REMARK  3 active torsions:
REMARK  status: ('A' for Active; 'I' for Inactive)
REMARK    1  A    between atoms: N2_1  and  C7_3 
REMARK    2  A    between atoms: C7_3  and  C4_4 
REMARK    3  A    between atoms: C1_9  and  N1_10 
ROOT
ATOM      1  C4  PBZ d          -1.786  14.235  16.566  0.00  0.00     0.007 A 
ATOM      2  C2  PBZ d          -2.233  16.145  17.982  0.00  0.00    -0.057 A 
ATOM      3  C3  PBZ d          -2.467  15.428  16.813  0.00  0.00    -0.067 A 
ATOM      4  C5  PBZ d          -0.872  13.755  17.507  0.00  0.00    -0.067 A 
ATOM      5  C6  PBZ d          -0.646  14.479  18.683  0.00  0.00    -0.057 A 
ATOM      6  C1  PBZ d          -1.319  15.674  18.914  0.00  0.00     0.025 A 
ATOM      7  H5  PBZ d          -2.765  17.072  18.164  0.00  0.00     0.086 H 
ATOM      8  H6  PBZ d          -3.184  15.798  16.089  0.00  0.00     0.085 H 
ATOM      9  H7  PBZ d          -0.341  12.827  17.327  0.00  0.00     0.085 H 
ATOM     10  H8  PBZ d           0.059  14.106  19.419  0.00  0.00     0.086 H 
ENDROOT
BRANCH   1  11
ATOM     11  C7  PBZ d          -2.038  13.487  15.283  0.00  0.00     0.102 C 
ATOM     12  N3  PBZ d          -2.589  14.079  14.221  0.00  0.00    -0.385 N 
ATOM     13  H3  PBZ d          -2.865  15.071  14.269  0.00  0.00     0.157 HD
ATOM     14  H4  PBZ d          -2.736  13.545  13.352  0.00  0.00     0.157 HD
BRANCH  11  15
ATOM     15  N2  PBZ d          -1.695  12.210  15.184  0.00  0.00    -0.385 N 
ATOM     16  H1  PBZ d          -2.409  11.500  14.967  0.00  0.00     0.157 HD
ATOM     17  H2  PBZ d          -0.714  11.928  15.324  0.00  0.00     0.157 HD
ENDBRANCH  11  15
ENDBRANCH   1  11
BRANCH   6  18
ATOM     18  N1  PBZ d          -1.103  16.378  20.057  0.00  0.00    -0.399 N 
ATOM     19  H9  PBZ d          -0.453  16.017  20.770  0.00  0.00     0.156 HD
ATOM     20  H10 PBZ d          -1.588  17.273  20.210  0.00  0.00     0.156 HD
ENDBRANCH   6  18
TORSDOF 3
ENDMDL
MODEL 2
REMARK VINA RESULT:      -6.1      0.039      1.524
REMARK  3 active torsions:
REMARK  status: ('A' for Active; 'I' for Inactive)
REMARK    1  A    between atoms: N2_1  and  C7_3 
REMARK    2  A    between atoms: C7_3  and  C4_4 
REMARK    3  A    between atoms: C1_9  and  N1_10 
ROOT
ATOM      1  C4  PBZ d          -1.798  14.265  16.544  0.00  0.00     0.007 A 
ATOM      2  C2  PBZ d          -0.680  14.458  18.681  0.00  0.00    -0.057 A 
ATOM      3  C3  PBZ d          -0.901  13.771  17.492  0.00  0.00    -0.067 A 
ATOM      4  C5  PBZ d          -2.468  15.466  16.789  0.00  0.00    -0.067 A 
ATOM      5  C6  PBZ d          -2.237  16.155  17.986  0.00  0.00    -0.057 A 
ATOM      6  C1  PBZ d          -1.352  15.647  18.931  0.00  0.00     0.025 A 
ATOM      7  H5  PBZ d           0.016  14.065  19.413  0.00  0.00     0.086 H 
ATOM      8  H6  PBZ d          -0.372  12.844  17.300  0.00  0.00     0.085 H 
ATOM      9  H7  PBZ d          -3.163  15.861  16.058  0.00  0.00     0.085 H 
ATOM     10  H8  PBZ d          -2.751  17.091  18.177  0.00  0.00     0.086 H 
ENDROOT
BRANCH   1  11
ATOM     11  C7  PBZ d          -2.038  13.493  15.273  0.00  0.00     0.102 C 
ATOM     12  N3  PBZ d          -2.581  14.065  14.196  0.00  0.00    -0.385 N 
ATOM     13  H3  PBZ d          -2.860  15.056  14.224  0.00  0.00     0.157 HD
ATOM     14  H4  PBZ d          -2.720  13.514  13.336  0.00  0.00     0.157 HD
BRANCH  11  15
ATOM     15  N2  PBZ d          -1.690  12.216  15.200  0.00  0.00    -0.385 N 
ATOM     16  H1  PBZ d          -1.948  11.568  15.958  0.00  0.00     0.157 HD
ATOM     17  H2  PBZ d          -1.162  11.872  14.385  0.00  0.00     0.157 HD
ENDBRANCH  11  15
ENDBRANCH   1  11
BRANCH   6  18
ATOM     18  N1  PBZ d          -1.124  16.316  20.092  0.00  0.00    -0.399 N 
ATOM     19  H9  PBZ d          -0.235  16.817  20.232  0.00  0.00     0.156 HD
ATOM     20  H10 PBZ d          -1.840  16.322  20.832  0.00  0.00     0.156 HD
ENDBRANCH   6  18
TORSDOF 3
ENDMDL
MODEL 3
REMARK VINA RESULT:      -5.4      0.999      4.217
REMARK  3 active torsions:
REMARK  status: ('A' for Active; 'I' for Inactive)
REMARK    1  A    between atoms: N2_1  and  C7_3 
REMARK    2  A    between atoms: C7_3  and  C4_4 
REMARK    3  A    between atoms: C1_9  and  N1_10 
ROOT
ATOM      1  C4  PBZ d          -1.169  15.366  17.920  0.00  0.00     0.007 A 
ATOM      2  C2  PBZ d          -2.176  14.574  15.868  0.00  0.00    -0.057 A 
ATOM      3  C3  PBZ d          -1.972  15.586  16.801  0.00  0.00    -0.067 A 
ATOM      4  C5  PBZ d          -0.556  14.123  18.097  0.00  0.00    -0.067 A 
ATOM      5  C6  PBZ d          -0.761  13.111  17.151  0.00  0.00    -0.057 A 
ATOM      6  C1  PBZ d          -1.575  13.335  16.046  0.00  0.00     0.025 A 
ATOM      7  H5  PBZ d          -2.804  14.752  15.003  0.00  0.00     0.086 H 
ATOM      8  H6  PBZ d          -2.441  16.552  16.656  0.00  0.00     0.085 H 
ATOM      9  H7  PBZ d           0.073  13.943  18.960  0.00  0.00     0.085 H 
ATOM     10  H8  PBZ d          -0.283  12.146  17.282  0.00  0.00     0.086 H 
ENDROOT
BRANCH   1  11
ATOM     11  C7  PBZ d          -0.981  16.469  18.929  0.00  0.00     0.102 C 
ATOM     12  N3  PBZ d          -1.427  16.359  20.182  0.00  0.00    -0.385 N 
ATOM     13  H3  PBZ d          -1.927  15.508  20.478  0.00  0.00     0.157 HD
ATOM     14  H4  PBZ d          -1.271  17.125  20.853  0.00  0.00     0.157 HD
BRANCH  11  15
ATOM     15  N2  PBZ d          -0.341  17.578  18.584  0.00  0.00    -0.385 N 
ATOM     16  H1  PBZ d           0.528  17.842  19.069  0.00  0.00     0.157 HD
ATOM     17  H2  PBZ d          -0.713  18.175  17.832  0.00  0.00     0.157 HD
ENDBRANCH  11  15
ENDBRANCH   1  11
BRANCH   6  18
ATOM     18  N1  PBZ d          -1.774  12.354  15.125  0.00  0.00    -0.399 N 
ATOM     19  H9  PBZ d          -1.030  11.669  14.934  0.00  0.00     0.156 HD
ATOM     20  H10 PBZ d          -2.669  12.297  14.620  0.00  0.00     0.156 HD
ENDBRANCH   6  18
TORSDOF 3
ENDMDL
MODEL 4
REMARK VINA RESULT:      -5.4      0.991      4.409
REMARK  3 active torsions:
REMARK  status: ('A' for Active; 'I' for Inactive)
REMARK    1  A    between atoms: N2_1  and  C7_3 
REMARK    2  A    between atoms: C7_3  and  C4_4 
REMARK    3  A    between atoms: C1_9  and  N1_10 
ROOT
ATOM      1  C4  PBZ d          -1.209  15.361  17.920  0.00  0.00     0.007 A 
ATOM      2  C2  PBZ d          -0.804  13.103  17.150  0.00  0.00    -0.057 A 
ATOM      3  C3  PBZ d          -0.615  14.110  18.092  0.00  0.00    -0.067 A 
ATOM      4  C5  PBZ d          -2.008  15.597  16.799  0.00  0.00    -0.067 A 
ATOM      5  C6  PBZ d          -2.198  14.578  15.858  0.00  0.00    -0.057 A 
ATOM      6  C1  PBZ d          -1.591  13.338  16.031  0.00  0.00     0.025 A 
ATOM      7  H5  PBZ d          -0.336  12.136  17.290  0.00  0.00     0.086 H 
ATOM      8  H6  PBZ d          -0.002  13.921  18.966  0.00  0.00     0.085 H 
ATOM      9  H7  PBZ d          -2.478  16.563  16.658  0.00  0.00     0.085 H 
ATOM     10  H8  PBZ d          -2.823  14.755  14.990  0.00  0.00     0.086 H 
ENDROOT
BRANCH   1  11
ATOM     11  C7  PBZ d          -0.973  16.443  18.941  0.00  0.00     0.102 C 
ATOM     12  N3  PBZ d          -0.343  17.578  18.629  0.00  0.00    -0.385 N 
ATOM     13  H3  PBZ d           0.008  17.726  17.671  0.00  0.00     0.157 HD
ATOM     14  H4  PBZ d          -0.208  18.306  19.345  0.00  0.00     0.157 HD
BRANCH  11  15
ATOM     15  N2  PBZ d          -1.411  16.288  20.183  0.00  0.00    -0.385 N 
ATOM     16  H1  PBZ d          -1.726  15.362  20.505  0.00  0.00     0.157 HD
ATOM     17  H2  PBZ d          -1.437  17.093  20.824  0.00  0.00     0.157 HD
ENDBRANCH  11  15
ENDBRANCH   1  11
BRANCH   6  18
ATOM     18  N1  PBZ d          -1.776  12.346  15.120  0.00  0.00    -0.399 N 
ATOM     19  H9  PBZ d          -1.976  11.387  15.437  0.00  0.00     0.156 HD
ATOM     20  H10 PBZ d          -1.717  12.554  14.113  0.00  0.00     0.156 HD
ENDBRANCH   6  18
TORSDOF 3
ENDMDL
MODEL 5
REMARK VINA RESULT:      -4.0      1.177      4.223
REMARK  3 active torsions:
REMARK  status: ('A' for Active; 'I' for Inactive)
REMARK    1  A    between atoms: N2_1  and  C7_3 
REMARK    2  A    between atoms: C7_3  and  C4_4 
REMARK    3  A    between atoms: C1_9  and  N1_10 
ROOT
ATOM      1  C4  PBZ d          -1.421  14.450  17.461  0.00  0.00     0.007 A 
ATOM      2  C2  PBZ d          -2.323  15.012  15.287  0.00  0.00    -0.057 A 
ATOM      3  C3  PBZ d          -2.069  15.349  16.613  0.00  0.00    -0.067 A 
ATOM      4  C5  PBZ d          -1.013  13.208  16.968  0.00  0.00    -0.067 A 
ATOM      5  C6  PBZ d          -1.267  12.878  15.631  0.00  0.00    -0.057 A 
ATOM      6  C1  PBZ d          -1.927  13.775  14.798  0.00  0.00     0.025 A 
ATOM      7  H5  PBZ d          -2.830  15.715  14.637  0.00  0.00     0.086 H 
ATOM      8  H6  PBZ d          -2.378  16.317  16.990  0.00  0.00     0.085 H 
ATOM      9  H7  PBZ d          -0.504  12.505  17.616  0.00  0.00     0.085 H 
ATOM     10  H8  PBZ d          -0.947  11.917  15.243  0.00  0.00     0.086 H 
ENDROOT
BRANCH   1  11
ATOM     11  C7  PBZ d          -1.177  14.828  18.898  0.00  0.00     0.102 C 
ATOM     12  N3  PBZ d          -0.577  13.994  19.752  0.00  0.00    -0.385 N 
ATOM     13  H3  PBZ d          -0.280  13.059  19.436  0.00  0.00     0.157 HD
ATOM     14  H4  PBZ d          -0.411  14.285  20.726  0.00  0.00     0.157 HD
BRANCH  11  15
ATOM     15  N2  PBZ d          -1.545  16.023  19.340  0.00  0.00    -0.385 N 
ATOM     16  H1  PBZ d          -2.000  16.113  20.259  0.00  0.00     0.157 HD
ATOM     17  H2  PBZ d          -1.375  16.859  18.764  0.00  0.00     0.157 HD
ENDBRANCH  11  15
ENDBRANCH   1  11
BRANCH   6  18
ATOM     18  N1  PBZ d          -2.172  13.458  13.499  0.00  0.00    -0.399 N 
ATOM     19  H9  PBZ d          -2.777  14.063  12.926  0.00  0.00     0.156 HD
ATOM     20  H10 PBZ d          -1.751  12.613  13.087  0.00  0.00     0.156 HD
ENDBRANCH   6  18
TORSDOF 3
ENDMDL
