MODEL 1
REMARK VINA RESULT:      -7.7      0.000      0.000
REMARK  10 active torsions:
REMARK  status: ('A' for Active; 'I' for Inactive)
REMARK    1  A    between atoms: C12_12  and  C21_21 
REMARK    2  A    between atoms: C13_13  and  C22_22 
REMARK    3  A    between atoms: C24_24  and  C14_14 
REMARK    4  A    between atoms: C25_25  and  C15_15 
REMARK    5  A    between atoms: C26_26  and  C16_16 
REMARK    6  A    between atoms: C27_27  and  C20_20 
REMARK       I    between atoms: C21_21  and  N28_28 
REMARK    7  A    between atoms: N28_28  and  C24_24 
REMARK    8  A    between atoms: N29_29  and  C25_25 
REMARK    9  A    between atoms: N29_29  and  C26_26 
REMARK   10  A    between atoms: C27_27  and  N29_29 
ROOT
ATOM      1  C25 N44 d          -8.013  44.709   0.363  0.00  0.00     0.109 C 
ATOM      2  H19 N44 d          -7.472  44.341  -0.521  0.00  0.00     0.083 H 
ATOM      3  H20 N44 d          -8.110  45.803   0.305  0.00  0.00     0.083 H 
ENDROOT
BRANCH   1   4
ATOM      4  C15 N44 d          -7.201  44.382   1.568  0.00  0.00    -0.017 A 
ATOM      5  C9  N44 d          -6.514  43.183   1.573  0.00  0.00    -0.074 A 
ATOM      6  C5  N44 d          -5.741  42.804   2.656  0.00  0.00    -0.082 A 
ATOM      7  H9  N44 d          -6.583  42.527   0.713  0.00  0.00     0.084 H 
ATOM      8  C2  N44 d          -5.667  43.644   3.740  0.00  0.00    -0.082 A 
ATOM      9  H5  N44 d          -5.203  41.864   2.650  0.00  0.00     0.083 H 
ATOM     10  C6  N44 d          -6.349  44.847   3.747  0.00  0.00    -0.067 A 
ATOM     11  H2  N44 d          -5.069  43.362   4.599  0.00  0.00     0.083 H 
ATOM     12  C12 N44 d          -7.120  45.231   2.663  0.00  0.00     0.040 A 
ATOM     13  H6  N44 d          -6.279  45.497   4.611  0.00  0.00     0.085 H 
BRANCH  12  14
ATOM     14  C21 N44 d          -7.847  46.534   2.711  0.00  0.00     0.252 C 
ATOM     15  N28 N44 d          -7.392  47.574   1.910  0.00  0.00    -0.353 N 
ATOM     16  H25 N44 d          -6.600  47.435   1.317  0.00  0.00     0.163 HD
ATOM     17  O31 N44 d          -8.809  46.652   3.454  0.00  0.00    -0.268 OA
BRANCH  15  18
ATOM     18  C24 N44 d          -8.061  48.859   1.932  0.00  0.00     0.019 C 
ATOM     19  H17 N44 d          -8.419  49.061   2.952  0.00  0.00     0.071 H 
ATOM     20  H18 N44 d          -7.348  49.641   1.632  0.00  0.00     0.071 H 
BRANCH  18  21
ATOM     21  C14 N44 d          -9.226  48.872   0.993  0.00  0.00    -0.041 A 
ATOM     22  C7  N44 d          -9.099  48.372  -0.285  0.00  0.00    -0.075 A 
ATOM     23  C3  N44 d         -10.171  48.365  -1.146  0.00  0.00    -0.082 A 
ATOM     24  H7  N44 d          -8.144  47.981  -0.615  0.00  0.00     0.084 H 
ATOM     25  C1  N44 d         -11.389  48.866  -0.737  0.00  0.00    -0.083 A 
ATOM     26  H3  N44 d         -10.059  47.966  -2.147  0.00  0.00     0.083 H 
ATOM     27  C4  N44 d         -11.521  49.385   0.531  0.00  0.00    -0.082 A 
ATOM     28  H1  N44 d         -12.239  48.850  -1.411  0.00  0.00     0.083 H 
ATOM     29  C8  N44 d         -10.446  49.382   1.395  0.00  0.00    -0.075 A 
ATOM     30  H4  N44 d         -12.471  49.796   0.852  0.00  0.00     0.083 H 
ATOM     31  H8  N44 d         -10.558  49.784   2.396  0.00  0.00     0.084 H 
ENDBRANCH  18  21
ENDBRANCH  15  18
ENDBRANCH  12  14
ENDBRANCH   1   4
BRANCH   1  32
ATOM     32  N29 N44 d          -9.380  44.126   0.342  0.00  0.00    -0.060 N 
ATOM     33  H26 N44 d          -9.572  43.986  -0.638  0.00  0.00     0.281 HD
BRANCH  32  34
ATOM     34  C26 N44 d         -10.496  45.035   0.787  0.00  0.00     0.109 C 
ATOM     35  H21 N44 d         -10.939  44.639   1.712  0.00  0.00     0.083 H 
ATOM     36  H22 N44 d         -10.091  46.040   0.975  0.00  0.00     0.083 H 
BRANCH  34  37
ATOM     37  C16 N44 d         -11.559  45.121  -0.272  0.00  0.00    -0.013 A 
ATOM     38  C10 N44 d         -11.188  44.826  -1.585  0.00  0.00    -0.071 A 
ATOM     39  C11 N44 d         -12.105  44.885  -2.627  0.00  0.00    -0.047 A 
ATOM     40  H10 N44 d         -10.163  44.545  -1.796  0.00  0.00     0.084 H 
ATOM     41  C17 N44 d         -13.390  45.253  -2.299  0.00  0.00     0.106 A 
ATOM     42  H11 N44 d         -11.822  44.653  -3.647  0.00  0.00     0.087 H 
ATOM     43  C18 N44 d         -13.765  45.546  -1.012  0.00  0.00     0.122 A 
ATOM     44  O33 N44 d         -14.421  45.369  -3.198  0.00  0.00    -0.323 OA
ATOM     45  C13 N44 d         -12.867  45.496   0.045  0.00  0.00     0.085 A 
ATOM     46  O34 N44 d         -15.114  45.897  -0.942  0.00  0.00    -0.322 OA
ATOM     47  C23 N44 d         -15.499  45.771  -2.323  0.00  0.00     0.115 A 
ATOM     48  H15 N44 d         -16.300  45.020  -2.392  0.00  0.00     0.118 H 
ATOM     49  H16 N44 d         -15.879  46.745  -2.667  0.00  0.00     0.118 H 
BRANCH  45  50
ATOM     50  C22 N44 d         -13.299  45.801   1.458  0.00  0.00     0.212 C 
ATOM     51  O30 N44 d         -12.621  46.667   2.078  0.00  0.00    -0.644 OA
ATOM     52  O32 N44 d         -14.319  45.236   1.954  0.00  0.00    -0.644 OA
ENDBRANCH  45  50
ENDBRANCH  34  37
ENDBRANCH  32  34
BRANCH  32  53
ATOM     53  C27 N44 d          -9.398  42.742   0.923  0.00  0.00     0.099 C 
ATOM     54  H23 N44 d          -8.587  42.669   1.662  0.00  0.00     0.082 H 
ATOM     55  H24 N44 d         -10.366  42.592   1.423  0.00  0.00     0.082 H 
BRANCH  53  56
ATOM     56  C20 N44 d          -9.217  41.651  -0.076  0.00  0.00    -0.087 C 
ATOM     57  C19 N44 d         -10.101  41.437  -1.059  0.00  0.00    -0.123 C 
ATOM     58  H12 N44 d          -9.937  40.631  -1.772  0.00  0.00     0.066 H 
ATOM     59  H13 N44 d         -10.982  42.070  -1.145  0.00  0.00     0.066 H 
ATOM     60  H14 N44 d          -8.341  41.008  -0.004  0.00  0.00     0.078 H 
ENDBRANCH  53  56
ENDBRANCH  32  53
ENDBRANCH   1  32
TORSDOF 10
ENDMDL
MODEL 2
REMARK VINA RESULT:      -7.6      1.787      4.518
REMARK  10 active torsions:
REMARK  status: ('A' for Active; 'I' for Inactive)
REMARK    1  A    between atoms: C12_12  and  C21_21 
REMARK    2  A    between atoms: C13_13  and  C22_22 
REMARK    3  A    between atoms: C24_24  and  C14_14 
REMARK    4  A    between atoms: C25_25  and  C15_15 
REMARK    5  A    between atoms: C26_26  and  C16_16 
REMARK    6  A    between atoms: C27_27  and  C20_20 
REMARK       I    between atoms: C21_21  and  N28_28 
REMARK    7  A    between atoms: N28_28  and  C24_24 
REMARK    8  A    between atoms: N29_29  and  C25_25 
REMARK    9  A    between atoms: N29_29  and  C26_26 
REMARK   10  A    between atoms: C27_27  and  N29_29 
ROOT
ATOM      1  C25 N44 d          -7.940  46.085   0.873  0.00  0.00     0.109 C 
ATOM      2  H19 N44 d          -8.981  45.761   0.726  0.00  0.00     0.083 H 
ATOM      3  H20 N44 d          -7.479  46.290  -0.105  0.00  0.00     0.083 H 
ENDROOT
BRANCH   1   4
ATOM      4  C15 N44 d          -7.194  44.964   1.509  0.00  0.00    -0.017 A 
ATOM      5  C9  N44 d          -6.453  45.245   2.641  0.00  0.00    -0.074 A 
ATOM      6  C5  N44 d          -5.729  44.259   3.287  0.00  0.00    -0.082 A 
ATOM      7  H9  N44 d          -6.438  46.257   3.029  0.00  0.00     0.084 H 
ATOM      8  C2  N44 d          -5.755  42.983   2.781  0.00  0.00    -0.082 A 
ATOM      9  H5  N44 d          -5.154  44.489   4.176  0.00  0.00     0.083 H 
ATOM     10  C6  N44 d          -6.493  42.688   1.650  0.00  0.00    -0.067 A 
ATOM     11  H2  N44 d          -5.190  42.199   3.272  0.00  0.00     0.083 H 
ATOM     12  C12 N44 d          -7.222  43.671   1.003  0.00  0.00     0.040 A 
ATOM     13  H6  N44 d          -6.500  41.675   1.265  0.00  0.00     0.085 H 
BRANCH  12  14
ATOM     14  C21 N44 d          -8.001  43.316  -0.220  0.00  0.00     0.252 C 
ATOM     15  N28 N44 d          -9.264  42.760  -0.060  0.00  0.00    -0.353 N 
ATOM     16  H25 N44 d          -9.630  42.614   0.858  0.00  0.00     0.163 HD
ATOM     17  O31 N44 d          -7.506  43.513  -1.319  0.00  0.00    -0.268 OA
BRANCH  15  18
ATOM     18  C24 N44 d         -10.051  42.390  -1.219  0.00  0.00     0.019 C 
ATOM     19  H17 N44 d          -9.382  42.262  -2.082  0.00  0.00     0.071 H 
ATOM     20  H18 N44 d         -10.570  41.442  -1.013  0.00  0.00     0.071 H 
BRANCH  18  21
ATOM     21  C14 N44 d         -11.063  43.445  -1.537  0.00  0.00    -0.041 A 
ATOM     22  C7  N44 d         -12.382  43.107  -1.750  0.00  0.00    -0.075 A 
ATOM     23  C3  N44 d         -13.320  44.074  -2.024  0.00  0.00    -0.082 A 
ATOM     24  H7  N44 d         -12.683  42.067  -1.700  0.00  0.00     0.084 H 
ATOM     25  C1  N44 d         -12.947  45.399  -2.094  0.00  0.00    -0.083 A 
ATOM     26  H3  N44 d         -14.355  43.794  -2.186  0.00  0.00     0.083 H 
ATOM     27  C4  N44 d         -11.628  45.745  -1.902  0.00  0.00    -0.082 A 
ATOM     28  H1  N44 d         -13.687  46.164  -2.299  0.00  0.00     0.083 H 
ATOM     29  C8  N44 d         -10.691  44.773  -1.619  0.00  0.00    -0.075 A 
ATOM     30  H4  N44 d         -11.325  46.783  -1.974  0.00  0.00     0.083 H 
ATOM     31  H8  N44 d          -9.656  45.053  -1.459  0.00  0.00     0.084 H 
ENDBRANCH  18  21
ENDBRANCH  15  18
ENDBRANCH  12  14
ENDBRANCH   1   4
BRANCH   1  32
ATOM     32  N29 N44 d          -7.959  47.354   1.646  0.00  0.00    -0.060 N 
ATOM     33  H26 N44 d          -7.065  47.372   2.111  0.00  0.00     0.281 HD
BRANCH  32  34
ATOM     34  C26 N44 d          -8.942  47.422   2.786  0.00  0.00     0.109 C 
ATOM     35  H21 N44 d          -8.546  46.856   3.640  0.00  0.00     0.083 H 
ATOM     36  H22 N44 d          -9.086  48.473   3.077  0.00  0.00     0.083 H 
BRANCH  34  37
ATOM     37  C16 N44 d         -10.264  46.838   2.375  0.00  0.00    -0.013 A 
ATOM     38  C10 N44 d         -10.336  45.454   2.215  0.00  0.00    -0.071 A 
ATOM     39  C11 N44 d         -11.517  44.830   1.833  0.00  0.00    -0.047 A 
ATOM     40  H10 N44 d          -9.452  44.852   2.393  0.00  0.00     0.084 H 
ATOM     41  C17 N44 d         -12.605  45.645   1.617  0.00  0.00     0.106 A 
ATOM     42  H11 N44 d         -11.579  43.754   1.711  0.00  0.00     0.087 H 
ATOM     43  C18 N44 d         -12.545  47.007   1.770  0.00  0.00     0.122 A 
ATOM     44  O33 N44 d         -13.846  45.203   1.230  0.00  0.00    -0.323 OA
ATOM     45  C13 N44 d         -11.376  47.654   2.149  0.00  0.00     0.085 A 
ATOM     46  O34 N44 d         -13.773  47.607   1.486  0.00  0.00    -0.322 OA
ATOM     47  C23 N44 d         -14.568  46.453   1.158  0.00  0.00     0.115 A 
ATOM     48  H15 N44 d         -15.415  46.405   1.859  0.00  0.00     0.118 H 
ATOM     49  H16 N44 d         -14.947  46.575   0.132  0.00  0.00     0.118 H 
BRANCH  45  50
ATOM     50  C22 N44 d         -11.331  49.150   2.334  0.00  0.00     0.212 C 
ATOM     51  O30 N44 d         -11.505  49.576   3.509  0.00  0.00    -0.644 OA
ATOM     52  O32 N44 d         -11.086  49.912   1.351  0.00  0.00    -0.644 OA
ENDBRANCH  45  50
ENDBRANCH  34  37
ENDBRANCH  32  34
BRANCH  32  53
ATOM     53  C27 N44 d          -7.928  48.552   0.741  0.00  0.00     0.099 C 
ATOM     54  H23 N44 d          -8.622  49.304   1.143  0.00  0.00     0.082 H 
ATOM     55  H24 N44 d          -6.905  48.957   0.743  0.00  0.00     0.082 H 
BRANCH  53  56
ATOM     56  C20 N44 d          -8.314  48.269  -0.670  0.00  0.00    -0.087 C 
ATOM     57  C19 N44 d          -9.361  48.867  -1.250  0.00  0.00    -0.123 C 
ATOM     58  H12 N44 d          -9.616  48.637  -2.284  0.00  0.00     0.066 H 
ATOM     59  H13 N44 d          -9.959  49.583  -0.689  0.00  0.00     0.066 H 
ATOM     60  H14 N44 d          -7.727  47.555  -1.246  0.00  0.00     0.078 H 
ENDBRANCH  53  56
ENDBRANCH  32  53
ENDBRANCH   1  32
TORSDOF 10
ENDMDL
MODEL 3
REMARK VINA RESULT:      -7.5      1.877      4.602
REMARK  10 active torsions:
REMARK  status: ('A' for Active; 'I' for Inactive)
REMARK    1  A    between atoms: C12_12  and  C21_21 
REMARK    2  A    between atoms: C13_13  and  C22_22 
REMARK    3  A    between atoms: C24_24  and  C14_14 
REMARK    4  A    between atoms: C25_25  and  C15_15 
REMARK    5  A    between atoms: C26_26  and  C16_16 
REMARK    6  A    between atoms: C27_27  and  C20_20 
REMARK       I    between atoms: C21_21  and  N28_28 
REMARK    7  A    between atoms: N28_28  and  C24_24 
REMARK    8  A    between atoms: N29_29  and  C25_25 
REMARK    9  A    between atoms: N29_29  and  C26_26 
REMARK   10  A    between atoms: C27_27  and  N29_29 
ROOT
ATOM      1  C25 N44 d          -8.959  48.583   1.453  0.00  0.00     0.109 C 
ATOM      2  H19 N44 d          -9.433  49.540   1.715  0.00  0.00     0.083 H 
ATOM      3  H20 N44 d          -8.466  48.162   2.342  0.00  0.00     0.083 H 
ENDROOT
BRANCH   1   4
ATOM      4  C15 N44 d          -7.911  48.854   0.430  0.00  0.00    -0.017 A 
ATOM      5  C9  N44 d          -7.987  50.044  -0.267  0.00  0.00    -0.074 A 
ATOM      6  C5  N44 d          -7.054  50.369  -1.237  0.00  0.00    -0.082 A 
ATOM      7  H9  N44 d          -8.792  50.737  -0.052  0.00  0.00     0.084 H 
ATOM      8  C2  N44 d          -6.041  49.479  -1.501  0.00  0.00    -0.082 A 
ATOM      9  H5  N44 d          -7.120  51.306  -1.776  0.00  0.00     0.083 H 
ATOM     10  C6  N44 d          -5.954  48.286  -0.810  0.00  0.00    -0.067 A 
ATOM     11  H2  N44 d          -5.304  49.715  -2.260  0.00  0.00     0.083 H 
ATOM     12  C12 N44 d          -6.883  47.960   0.164  0.00  0.00     0.040 A 
ATOM     13  H6  N44 d          -5.147  47.596  -1.033  0.00  0.00     0.085 H 
BRANCH  12  14
ATOM     14  C21 N44 d          -6.758  46.658   0.884  0.00  0.00     0.252 C 
ATOM     15  N28 N44 d          -7.181  45.503   0.239  0.00  0.00    -0.353 N 
ATOM     16  H25 N44 d          -7.551  45.559  -0.688  0.00  0.00     0.163 HD
ATOM     17  O31 N44 d          -6.300  46.646   2.016  0.00  0.00    -0.268 OA
BRANCH  15  18
ATOM     18  C24 N44 d          -7.088  44.220   0.904  0.00  0.00     0.019 C 
ATOM     19  H17 N44 d          -6.059  43.842   0.816  0.00  0.00     0.071 H 
ATOM     20  H18 N44 d          -7.344  44.346   1.967  0.00  0.00     0.071 H 
BRANCH  18  21
ATOM     21  C14 N44 d          -8.026  43.229   0.289  0.00  0.00    -0.041 A 
ATOM     22  C7  N44 d          -8.215  41.993   0.867  0.00  0.00    -0.075 A 
ATOM     23  C3  N44 d          -9.090  41.086   0.316  0.00  0.00    -0.082 A 
ATOM     24  H7  N44 d          -7.668  41.732   1.765  0.00  0.00     0.084 H 
ATOM     25  C1  N44 d          -9.787  41.406  -0.829  0.00  0.00    -0.083 A 
ATOM     26  H3  N44 d          -9.231  40.118   0.783  0.00  0.00     0.083 H 
ATOM     27  C4  N44 d          -9.590  42.632  -1.425  0.00  0.00    -0.082 A 
ATOM     28  H1  N44 d         -10.486  40.697  -1.259  0.00  0.00     0.083 H 
ATOM     29  C8  N44 d          -8.719  43.542  -0.865  0.00  0.00    -0.075 A 
ATOM     30  H4  N44 d         -10.122  42.882  -2.336  0.00  0.00     0.083 H 
ATOM     31  H8  N44 d          -8.576  44.509  -1.334  0.00  0.00     0.084 H 
ENDBRANCH  18  21
ENDBRANCH  15  18
ENDBRANCH  12  14
ENDBRANCH   1   4
BRANCH   1  32
ATOM     32  N29 N44 d         -10.028  47.640   1.031  0.00  0.00    -0.060 N 
ATOM     33  H26 N44 d          -9.551  46.976   0.441  0.00  0.00     0.281 HD
BRANCH  32  34
ATOM     34  C26 N44 d         -11.093  48.205   0.128  0.00  0.00     0.109 C 
ATOM     35  H21 N44 d         -11.827  48.755   0.734  0.00  0.00     0.083 H 
ATOM     36  H22 N44 d         -10.627  48.891  -0.595  0.00  0.00     0.083 H 
BRANCH  34  37
ATOM     37  C16 N44 d         -11.791  47.103  -0.616  0.00  0.00    -0.013 A 
ATOM     38  C10 N44 d         -11.076  46.444  -1.616  0.00  0.00    -0.071 A 
ATOM     39  C11 N44 d         -11.646  45.416  -2.357  0.00  0.00    -0.047 A 
ATOM     40  H10 N44 d         -10.053  46.739  -1.819  0.00  0.00     0.084 H 
ATOM     41  C17 N44 d         -12.948  45.087  -2.057  0.00  0.00     0.106 A 
ATOM     42  H11 N44 d         -11.092  44.898  -3.132  0.00  0.00     0.087 H 
ATOM     43  C18 N44 d         -13.662  45.729  -1.077  0.00  0.00     0.122 A 
ATOM     44  O33 N44 d         -13.670  44.105  -2.689  0.00  0.00    -0.323 OA
ATOM     45  C13 N44 d         -13.115  46.761  -0.325  0.00  0.00     0.085 A 
ATOM     46  O34 N44 d         -14.957  45.220  -0.972  0.00  0.00    -0.322 OA
ATOM     47  C23 N44 d         -14.930  44.202  -1.988  0.00  0.00     0.115 A 
ATOM     48  H15 N44 d         -15.137  43.231  -1.512  0.00  0.00     0.118 H 
ATOM     49  H16 N44 d         -15.718  44.425  -2.723  0.00  0.00     0.118 H 
BRANCH  45  50
ATOM     50  C22 N44 d         -13.905  47.444   0.763  0.00  0.00     0.212 C 
ATOM     51  O30 N44 d         -14.184  46.745   1.777  0.00  0.00    -0.644 OA
ATOM     52  O32 N44 d         -14.220  48.667   0.658  0.00  0.00    -0.644 OA
ENDBRANCH  45  50
ENDBRANCH  34  37
ENDBRANCH  32  34
BRANCH  32  53
ATOM     53  C27 N44 d         -10.523  46.817   2.185  0.00  0.00     0.099 C 
ATOM     54  H23 N44 d         -10.031  47.178   3.100  0.00  0.00     0.082 H 
ATOM     55  H24 N44 d         -11.610  46.964   2.270  0.00  0.00     0.082 H 
BRANCH  53  56
ATOM     56  C20 N44 d         -10.260  45.356   2.060  0.00  0.00    -0.087 C 
ATOM     57  C19 N44 d         -11.235  44.483   1.777  0.00  0.00    -0.123 C 
ATOM     58  H12 N44 d         -11.007  43.422   1.693  0.00  0.00     0.066 H 
ATOM     59  H13 N44 d         -12.254  44.835   1.632  0.00  0.00     0.066 H 
ATOM     60  H14 N44 d          -9.246  44.987   2.203  0.00  0.00     0.078 H 
ENDBRANCH  53  56
ENDBRANCH  32  53
ENDBRANCH   1  32
TORSDOF 10
ENDMDL
MODEL 4
REMARK VINA RESULT:      -7.5      2.039      4.723
REMARK  10 active torsions:
REMARK  status: ('A' for Active; 'I' for Inactive)
REMARK    1  A    between atoms: C12_12  and  C21_21 
REMARK    2  A    between atoms: C13_13  and  C22_22 
REMARK    3  A    between atoms: C24_24  and  C14_14 
REMARK    4  A    between atoms: C25_25  and  C15_15 
REMARK    5  A    between atoms: C26_26  and  C16_16 
REMARK    6  A    between atoms: C27_27  and  C20_20 
REMARK       I    between atoms: C21_21  and  N28_28 
REMARK    7  A    between atoms: N28_28  and  C24_24 
REMARK    8  A    between atoms: N29_29  and  C25_25 
REMARK    9  A    between atoms: N29_29  and  C26_26 
REMARK   10  A    between atoms: C27_27  and  N29_29 
ROOT
ATOM      1  C25 N44 d          -7.081  46.993   3.125  0.00  0.00     0.109 C 
ATOM      2  H19 N44 d          -6.753  47.031   2.075  0.00  0.00     0.083 H 
ATOM      3  H20 N44 d          -6.445  47.654   3.731  0.00  0.00     0.083 H 
ENDROOT
BRANCH   1   4
ATOM      4  C15 N44 d          -6.896  45.599   3.614  0.00  0.00    -0.017 A 
ATOM      5  C9  N44 d          -6.648  45.419   4.961  0.00  0.00    -0.074 A 
ATOM      6  C5  N44 d          -6.461  44.155   5.493  0.00  0.00    -0.082 A 
ATOM      7  H9  N44 d          -6.599  46.282   5.613  0.00  0.00     0.084 H 
ATOM      8  C2  N44 d          -6.521  43.070   4.653  0.00  0.00    -0.082 A 
ATOM      9  H5  N44 d          -6.270  44.023   6.551  0.00  0.00     0.083 H 
ATOM     10  C6  N44 d          -6.770  43.237   3.303  0.00  0.00    -0.067 A 
ATOM     11  H2  N44 d          -6.373  42.073   5.051  0.00  0.00     0.083 H 
ATOM     12  C12 N44 d          -6.962  44.499   2.769  0.00  0.00     0.040 A 
ATOM     13  H6  N44 d          -6.814  42.369   2.656  0.00  0.00     0.085 H 
BRANCH  12  14
ATOM     14  C21 N44 d          -7.221  44.640   1.305  0.00  0.00     0.252 C 
ATOM     15  N28 N44 d          -7.646  43.522   0.599  0.00  0.00    -0.353 N 
ATOM     16  H25 N44 d          -7.777  42.653   1.076  0.00  0.00     0.163 HD
ATOM     17  O31 N44 d          -7.045  45.724   0.771  0.00  0.00    -0.268 OA
BRANCH  15  18
ATOM     18  C24 N44 d          -7.899  43.610  -0.825  0.00  0.00     0.019 C 
ATOM     19  H17 N44 d          -7.690  44.634  -1.165  0.00  0.00     0.071 H 
ATOM     20  H18 N44 d          -7.238  42.906  -1.352  0.00  0.00     0.071 H 
BRANCH  18  21
ATOM     21  C14 N44 d          -9.323  43.271  -1.137  0.00  0.00    -0.041 A 
ATOM     22  C7  N44 d          -9.767  41.970  -1.050  0.00  0.00    -0.075 A 
ATOM     23  C3  N44 d         -11.079  41.656  -1.319  0.00  0.00    -0.082 A 
ATOM     24  H7  N44 d          -9.075  41.185  -0.768  0.00  0.00     0.084 H 
ATOM     25  C1  N44 d         -11.966  42.647  -1.683  0.00  0.00    -0.083 A 
ATOM     26  H3  N44 d         -11.416  40.629  -1.243  0.00  0.00     0.083 H 
ATOM     27  C4  N44 d         -11.527  43.947  -1.791  0.00  0.00    -0.082 A 
ATOM     28  H1  N44 d         -13.003  42.403  -1.884  0.00  0.00     0.083 H 
ATOM     29  C8  N44 d         -10.212  44.260  -1.513  0.00  0.00    -0.075 A 
ATOM     30  H4  N44 d         -12.215  44.727  -2.095  0.00  0.00     0.083 H 
ATOM     31  H8  N44 d          -9.875  45.287  -1.591  0.00  0.00     0.084 H 
ENDBRANCH  18  21
ENDBRANCH  15  18
ENDBRANCH  12  14
ENDBRANCH   1   4
BRANCH   1  32
ATOM     32  N29 N44 d          -8.473  47.510   3.190  0.00  0.00    -0.060 N 
ATOM     33  H26 N44 d          -9.027  46.695   3.406  0.00  0.00     0.281 HD
BRANCH  32  34
ATOM     34  C26 N44 d          -9.063  47.996   1.892  0.00  0.00     0.109 C 
ATOM     35  H21 N44 d          -9.310  49.063   1.984  0.00  0.00     0.083 H 
ATOM     36  H22 N44 d          -8.326  47.858   1.086  0.00  0.00     0.083 H 
BRANCH  34  37
ATOM     37  C16 N44 d         -10.309  47.226   1.559  0.00  0.00    -0.013 A 
ATOM     38  C10 N44 d         -10.489  45.988   2.177  0.00  0.00    -0.071 A 
ATOM     39  C11 N44 d         -11.609  45.208   1.924  0.00  0.00    -0.047 A 
ATOM     40  H10 N44 d          -9.738  45.628   2.871  0.00  0.00     0.084 H 
ATOM     41  C17 N44 d         -12.526  45.715   1.031  0.00  0.00     0.106 A 
ATOM     42  H11 N44 d         -11.755  44.247   2.405  0.00  0.00     0.087 H 
ATOM     43  C18 N44 d         -12.360  46.930   0.416  0.00  0.00     0.122 A 
ATOM     44  O33 N44 d         -13.685  45.080   0.658  0.00  0.00    -0.323 OA
ATOM     45  C13 N44 d         -11.247  47.727   0.652  0.00  0.00     0.085 A 
ATOM     46  O34 N44 d         -13.419  47.215  -0.447  0.00  0.00    -0.322 OA
ATOM     47  C23 N44 d         -14.235  46.043  -0.269  0.00  0.00     0.115 A 
ATOM     48  H15 N44 d         -15.220  46.360   0.104  0.00  0.00     0.118 H 
ATOM     49  H16 N44 d         -14.354  45.552  -1.247  0.00  0.00     0.118 H 
BRANCH  45  50
ATOM     50  C22 N44 d         -11.087  49.070  -0.016  0.00  0.00     0.212 C 
ATOM     51  O30 N44 d         -10.549  49.068  -1.158  0.00  0.00    -0.644 OA
ATOM     52  O32 N44 d         -11.520  50.121   0.544  0.00  0.00    -0.644 OA
ENDBRANCH  45  50
ENDBRANCH  34  37
ENDBRANCH  32  34
BRANCH  32  53
ATOM     53  C27 N44 d          -8.671  48.413   4.373  0.00  0.00     0.099 C 
ATOM     54  H23 N44 d          -7.706  48.514   4.892  0.00  0.00     0.082 H 
ATOM     55  H24 N44 d          -8.994  49.397   4.003  0.00  0.00     0.082 H 
BRANCH  53  56
ATOM     56  C20 N44 d          -9.681  47.931   5.357  0.00  0.00    -0.087 C 
ATOM     57  C19 N44 d         -10.985  48.203   5.222  0.00  0.00    -0.123 C 
ATOM     58  H12 N44 d         -11.697  47.835   5.960  0.00  0.00     0.066 H 
ATOM     59  H13 N44 d         -11.333  48.792   4.376  0.00  0.00     0.066 H 
ATOM     60  H14 N44 d          -9.350  47.340   6.209  0.00  0.00     0.078 H 
ENDBRANCH  53  56
ENDBRANCH  32  53
ENDBRANCH   1  32
TORSDOF 10
ENDMDL
MODEL 5
REMARK VINA RESULT:      -7.4      1.479      2.816
REMARK  10 active torsions:
REMARK  status: ('A' for Active; 'I' for Inactive)
REMARK    1  A    between atoms: C12_12  and  C21_21 
REMARK    2  A    between atoms: C13_13  and  C22_22 
REMARK    3  A    between atoms: C24_24  and  C14_14 
REMARK    4  A    between atoms: C25_25  and  C15_15 
REMARK    5  A    between atoms: C26_26  and  C16_16 
REMARK    6  A    between atoms: C27_27  and  C20_20 
REMARK       I    between atoms: C21_21  and  N28_28 
REMARK    7  A    between atoms: N28_28  and  C24_24 
REMARK    8  A    between atoms: N29_29  and  C25_25 
REMARK    9  A    between atoms: N29_29  and  C26_26 
REMARK   10  A    between atoms: C27_27  and  N29_29 
ROOT
ATOM      1  C25 N44 d          -8.936  45.570   0.160  0.00  0.00     0.109 C 
ATOM      2  H19 N44 d          -9.295  45.221  -0.820  0.00  0.00     0.083 H 
ATOM      3  H20 N44 d          -8.272  46.436   0.020  0.00  0.00     0.083 H 
ENDROOT
BRANCH   1   4
ATOM      4  C15 N44 d          -8.140  44.473   0.775  0.00  0.00    -0.017 A 
ATOM      5  C9  N44 d          -8.186  43.230   0.173  0.00  0.00    -0.074 A 
ATOM      6  C5  N44 d          -7.477  42.158   0.686  0.00  0.00    -0.082 A 
ATOM      7  H9  N44 d          -8.789  43.092  -0.716  0.00  0.00     0.084 H 
ATOM      8  C2  N44 d          -6.721  42.348   1.817  0.00  0.00    -0.082 A 
ATOM      9  H5  N44 d          -7.518  41.188   0.205  0.00  0.00     0.083 H 
ATOM     10  C6  N44 d          -6.666  43.586   2.428  0.00  0.00    -0.067 A 
ATOM     11  H2  N44 d          -6.163  41.518   2.235  0.00  0.00     0.083 H 
ATOM     12  C12 N44 d          -7.370  44.662   1.915  0.00  0.00     0.040 A 
ATOM     13  H6  N44 d          -6.063  43.717   3.320  0.00  0.00     0.085 H 
BRANCH  12  14
ATOM     14  C21 N44 d          -7.290  45.983   2.607  0.00  0.00     0.252 C 
ATOM     15  N28 N44 d          -8.124  46.211   3.693  0.00  0.00    -0.353 N 
ATOM     16  H25 N44 d          -8.752  45.495   3.997  0.00  0.00     0.163 HD
ATOM     17  O31 N44 d          -6.506  46.824   2.196  0.00  0.00    -0.268 OA
BRANCH  15  18
ATOM     18  C24 N44 d          -8.088  47.481   4.389  0.00  0.00     0.019 C 
ATOM     19  H17 N44 d          -8.185  47.302   5.470  0.00  0.00     0.071 H 
ATOM     20  H18 N44 d          -7.126  47.976   4.184  0.00  0.00     0.071 H 
BRANCH  18  21
ATOM     21  C14 N44 d          -9.203  48.371   3.937  0.00  0.00    -0.041 A 
ATOM     22  C7  N44 d          -8.936  49.516   3.220  0.00  0.00    -0.075 A 
ATOM     23  C3  N44 d          -9.958  50.328   2.786  0.00  0.00    -0.082 A 
ATOM     24  H7  N44 d          -7.910  49.780   2.994  0.00  0.00     0.084 H 
ATOM     25  C1  N44 d         -11.267  50.003   3.073  0.00  0.00    -0.083 A 
ATOM     26  H3  N44 d          -9.735  51.224   2.220  0.00  0.00     0.083 H 
ATOM     27  C4  N44 d         -11.543  48.870   3.806  0.00  0.00    -0.082 A 
ATOM     28  H1  N44 d         -12.076  50.635   2.722  0.00  0.00     0.083 H 
ATOM     29  C8  N44 d         -10.516  48.054   4.232  0.00  0.00    -0.075 A 
ATOM     30  H4  N44 d         -12.568  48.619   4.049  0.00  0.00     0.083 H 
ATOM     31  H8  N44 d         -10.739  47.159   4.800  0.00  0.00     0.084 H 
ENDBRANCH  18  21
ENDBRANCH  15  18
ENDBRANCH  12  14
ENDBRANCH   1   4
BRANCH   1  32
ATOM     32  N29 N44 d         -10.114  46.019   0.948  0.00  0.00    -0.060 N 
ATOM     33  H26 N44 d          -9.756  46.129   1.884  0.00  0.00     0.281 HD
BRANCH  32  34
ATOM     34  C26 N44 d         -11.221  45.011   1.118  0.00  0.00     0.109 C 
ATOM     35  H21 N44 d         -10.783  44.014   1.264  0.00  0.00     0.083 H 
ATOM     36  H22 N44 d         -11.823  45.280   1.998  0.00  0.00     0.083 H 
BRANCH  34  37
ATOM     37  C16 N44 d         -12.105  44.991  -0.098  0.00  0.00    -0.013 A 
ATOM     38  C10 N44 d         -11.585  44.429  -1.264  0.00  0.00    -0.071 A 
ATOM     39  C11 N44 d         -12.331  44.373  -2.435  0.00  0.00    -0.047 A 
ATOM     40  H10 N44 d         -10.579  44.027  -1.257  0.00  0.00     0.084 H 
ATOM     41  C17 N44 d         -13.600  44.903  -2.385  0.00  0.00     0.106 A 
ATOM     42  H11 N44 d         -11.933  43.934  -3.343  0.00  0.00     0.087 H 
ATOM     43  C18 N44 d         -14.121  45.459  -1.244  0.00  0.00     0.122 A 
ATOM     44  O33 N44 d         -14.472  44.939  -3.445  0.00  0.00    -0.323 OA
ATOM     45  C13 N44 d         -13.394  45.528  -0.062  0.00  0.00     0.085 A 
ATOM     46  O34 N44 d         -15.418  45.930  -1.452  0.00  0.00    -0.322 OA
ATOM     47  C23 N44 d         -15.613  45.586  -2.835  0.00  0.00     0.115 A 
ATOM     48  H15 N44 d         -16.475  44.905  -2.905  0.00  0.00     0.118 H 
ATOM     49  H16 N44 d         -15.827  46.508  -3.395  0.00  0.00     0.118 H 
BRANCH  45  50
ATOM     50  C22 N44 d         -13.987  46.123   1.190  0.00  0.00     0.212 C 
ATOM     51  O30 N44 d         -14.622  45.332   1.942  0.00  0.00    -0.644 OA
ATOM     52  O32 N44 d         -13.805  47.346   1.469  0.00  0.00    -0.644 OA
ENDBRANCH  45  50
ENDBRANCH  34  37
ENDBRANCH  32  34
BRANCH  32  53
ATOM     53  C27 N44 d         -10.547  47.401   0.554  0.00  0.00     0.099 C 
ATOM     54  H23 N44 d         -11.629  47.379   0.358  0.00  0.00     0.082 H 
ATOM     55  H24 N44 d         -10.340  48.079   1.395  0.00  0.00     0.082 H 
BRANCH  53  56
ATOM     56  C20 N44 d          -9.865  47.940  -0.657  0.00  0.00    -0.087 C 
ATOM     57  C19 N44 d          -9.666  49.252  -0.831  0.00  0.00    -0.123 C 
ATOM     58  H12 N44 d          -9.164  49.612  -1.728  0.00  0.00     0.066 H 
ATOM     59  H13 N44 d         -10.005  49.959  -0.077  0.00  0.00     0.066 H 
ATOM     60  H14 N44 d          -9.520  47.247  -1.422  0.00  0.00     0.078 H 
ENDBRANCH  53  56
ENDBRANCH  32  53
ENDBRANCH   1  32
TORSDOF 10
ENDMDL
MODEL 6
REMARK VINA RESULT:      -7.4      2.010      5.441
REMARK  10 active torsions:
REMARK  status: ('A' for Active; 'I' for Inactive)
REMARK    1  A    between atoms: C12_12  and  C21_21 
REMARK    2  A    between atoms: C13_13  and  C22_22 
REMARK    3  A    between atoms: C24_24  and  C14_14 
REMARK    4  A    between atoms: C25_25  and  C15_15 
REMARK    5  A    between atoms: C26_26  and  C16_16 
REMARK    6  A    between atoms: C27_27  and  C20_20 
REMARK       I    between atoms: C21_21  and  N28_28 
REMARK    7  A    between atoms: N28_28  and  C24_24 
REMARK    8  A    between atoms: N29_29  and  C25_25 
REMARK    9  A    between atoms: N29_29  and  C26_26 
REMARK   10  A    between atoms: C27_27  and  N29_29 
ROOT
ATOM      1  C25 N44 d         -10.065  45.368  -0.207  0.00  0.00     0.109 C 
ATOM      2  H19 N44 d         -10.803  46.116  -0.534  0.00  0.00     0.083 H 
ATOM      3  H20 N44 d          -9.096  45.576  -0.684  0.00  0.00     0.083 H 
ENDROOT
BRANCH   1   4
ATOM      4  C15 N44 d         -10.529  44.031  -0.670  0.00  0.00    -0.017 A 
ATOM      5  C9  N44 d         -11.849  43.909  -1.061  0.00  0.00    -0.074 A 
ATOM      6  C5  N44 d         -12.358  42.700  -1.500  0.00  0.00    -0.082 A 
ATOM      7  H9  N44 d         -12.497  44.777  -1.023  0.00  0.00     0.084 H 
ATOM      8  C2  N44 d         -11.525  41.609  -1.538  0.00  0.00    -0.082 A 
ATOM      9  H5  N44 d         -13.393  42.615  -1.807  0.00  0.00     0.083 H 
ATOM     10  C6  N44 d         -10.203  41.718  -1.151  0.00  0.00    -0.067 A 
ATOM     11  H2  N44 d         -11.908  40.652  -1.875  0.00  0.00     0.083 H 
ATOM     12  C12 N44 d          -9.689  42.927  -0.716  0.00  0.00     0.040 A 
ATOM     13  H6  N44 d          -9.561  40.845  -1.188  0.00  0.00     0.085 H 
BRANCH  12  14
ATOM     14  C21 N44 d          -8.257  43.003  -0.299  0.00  0.00     0.252 C 
ATOM     15  N28 N44 d          -7.910  42.531   0.960  0.00  0.00    -0.353 N 
ATOM     16  H25 N44 d          -8.612  42.146   1.558  0.00  0.00     0.163 HD
ATOM     17  O31 N44 d          -7.438  43.484  -1.067  0.00  0.00    -0.268 OA
BRANCH  15  18
ATOM     18  C24 N44 d          -6.534  42.595   1.410  0.00  0.00     0.019 C 
ATOM     19  H17 N44 d          -6.181  41.578   1.634  0.00  0.00     0.071 H 
ATOM     20  H18 N44 d          -5.914  43.030   0.612  0.00  0.00     0.071 H 
BRANCH  18  21
ATOM     21  C14 N44 d          -6.412  43.437   2.640  0.00  0.00    -0.041 A 
ATOM     22  C7  N44 d          -6.992  43.035   3.823  0.00  0.00    -0.075 A 
ATOM     23  C3  N44 d          -6.867  43.796   4.962  0.00  0.00    -0.082 A 
ATOM     24  H7  N44 d          -7.554  42.109   3.857  0.00  0.00     0.084 H 
ATOM     25  C1  N44 d          -6.160  44.979   4.928  0.00  0.00    -0.083 A 
ATOM     26  H3  N44 d          -7.326  43.466   5.886  0.00  0.00     0.083 H 
ATOM     27  C4  N44 d          -5.592  45.399   3.746  0.00  0.00    -0.082 A 
ATOM     28  H1  N44 d          -6.050  45.575   5.827  0.00  0.00     0.083 H 
ATOM     29  C8  N44 d          -5.712  44.629   2.608  0.00  0.00    -0.075 A 
ATOM     30  H4  N44 d          -5.050  46.336   3.709  0.00  0.00     0.083 H 
ATOM     31  H8  N44 d          -5.255  44.960   1.682  0.00  0.00     0.084 H 
ENDBRANCH  18  21
ENDBRANCH  15  18
ENDBRANCH  12  14
ENDBRANCH   1   4
BRANCH   1  32
ATOM     32  N29 N44 d          -9.892  45.506   1.263  0.00  0.00    -0.060 N 
ATOM     33  H26 N44 d          -9.741  44.562   1.582  0.00  0.00     0.281 HD
BRANCH  32  34
ATOM     34  C26 N44 d         -11.108  45.943   2.036  0.00  0.00     0.109 C 
ATOM     35  H21 N44 d         -11.876  45.159   1.976  0.00  0.00     0.083 H 
ATOM     36  H22 N44 d         -10.830  46.104   3.088  0.00  0.00     0.083 H 
BRANCH  34  37
ATOM     37  C16 N44 d         -11.661  47.221   1.470  0.00  0.00    -0.013 A 
ATOM     38  C10 N44 d         -10.830  48.342   1.475  0.00  0.00    -0.071 A 
ATOM     39  C11 N44 d         -11.261  49.565   0.977  0.00  0.00    -0.047 A 
ATOM     40  H10 N44 d          -9.827  48.257   1.877  0.00  0.00     0.084 H 
ATOM     41  C17 N44 d         -12.545  49.613   0.484  0.00  0.00     0.106 A 
ATOM     42  H11 N44 d         -10.617  50.437   0.975  0.00  0.00     0.087 H 
ATOM     43  C18 N44 d         -13.371  48.517   0.475  0.00  0.00     0.122 A 
ATOM     44  O33 N44 d         -13.138  50.735  -0.040  0.00  0.00    -0.323 OA
ATOM     45  C13 N44 d         -12.964  47.286   0.970  0.00  0.00     0.085 A 
ATOM     46  O34 N44 d         -14.620  48.824  -0.067  0.00  0.00    -0.322 OA
ATOM     47  C23 N44 d         -14.442  50.217  -0.385  0.00  0.00     0.115 A 
ATOM     48  H15 N44 d         -14.591  50.346  -1.468  0.00  0.00     0.118 H 
ATOM     49  H16 N44 d         -15.201  50.797   0.161  0.00  0.00     0.118 H 
BRANCH  45  50
ATOM     50  C22 N44 d         -13.876  46.085   0.934  0.00  0.00     0.212 C 
ATOM     51  O30 N44 d         -14.276  45.651   2.050  0.00  0.00    -0.644 OA
ATOM     52  O32 N44 d         -14.240  45.586  -0.173  0.00  0.00    -0.644 OA
ENDBRANCH  45  50
ENDBRANCH  34  37
ENDBRANCH  32  34
BRANCH  32  53
ATOM     53  C27 N44 d          -8.614  46.218   1.603  0.00  0.00     0.099 C 
ATOM     54  H23 N44 d          -8.870  47.148   2.132  0.00  0.00     0.082 H 
ATOM     55  H24 N44 d          -8.024  45.568   2.266  0.00  0.00     0.082 H 
BRANCH  53  56
ATOM     56  C20 N44 d          -7.771  46.570   0.425  0.00  0.00    -0.087 C 
ATOM     57  C19 N44 d          -7.498  47.840   0.105  0.00  0.00    -0.123 C 
ATOM     58  H12 N44 d          -6.878  48.061  -0.763  0.00  0.00     0.066 H 
ATOM     59  H13 N44 d          -7.895  48.652   0.711  0.00  0.00     0.066 H 
ATOM     60  H14 N44 d          -7.366  45.770  -0.192  0.00  0.00     0.078 H 
ENDBRANCH  53  56
ENDBRANCH  32  53
ENDBRANCH   1  32
TORSDOF 10
ENDMDL
MODEL 7
REMARK VINA RESULT:      -7.2      2.364      7.253
REMARK  10 active torsions:
REMARK  status: ('A' for Active; 'I' for Inactive)
REMARK    1  A    between atoms: C12_12  and  C21_21 
REMARK    2  A    between atoms: C13_13  and  C22_22 
REMARK    3  A    between atoms: C24_24  and  C14_14 
REMARK    4  A    between atoms: C25_25  and  C15_15 
REMARK    5  A    between atoms: C26_26  and  C16_16 
REMARK    6  A    between atoms: C27_27  and  C20_20 
REMARK       I    between atoms: C21_21  and  N28_28 
REMARK    7  A    between atoms: N28_28  and  C24_24 
REMARK    8  A    between atoms: N29_29  and  C25_25 
REMARK    9  A    between atoms: N29_29  and  C26_26 
REMARK   10  A    between atoms: C27_27  and  N29_29 
ROOT
ATOM      1  C25 N44 d         -12.624  45.085   0.509  0.00  0.00     0.109 C 
ATOM      2  H19 N44 d         -12.028  44.161   0.484  0.00  0.00     0.083 H 
ATOM      3  H20 N44 d         -13.329  45.043   1.354  0.00  0.00     0.083 H 
ENDROOT
BRANCH   1   4
ATOM      4  C15 N44 d         -13.417  45.156  -0.749  0.00  0.00    -0.017 A 
ATOM      5  C9  N44 d         -14.229  46.259  -0.936  0.00  0.00    -0.074 A 
ATOM      6  C5  N44 d         -15.000  46.397  -2.077  0.00  0.00    -0.082 A 
ATOM      7  H9  N44 d         -14.263  47.029  -0.174  0.00  0.00     0.084 H 
ATOM      8  C2  N44 d         -14.949  45.410  -3.030  0.00  0.00    -0.082 A 
ATOM      9  H5  N44 d         -15.630  47.267  -2.215  0.00  0.00     0.083 H 
ATOM     10  C6  N44 d         -14.140  44.303  -2.856  0.00  0.00    -0.067 A 
ATOM     11  H2  N44 d         -15.549  45.499  -3.928  0.00  0.00     0.083 H 
ATOM     12  C12 N44 d         -13.364  44.164  -1.718  0.00  0.00     0.040 A 
ATOM     13  H6  N44 d         -14.114  43.534  -3.620  0.00  0.00     0.085 H 
BRANCH  12  14
ATOM     14  C21 N44 d         -12.509  42.950  -1.563  0.00  0.00     0.252 C 
ATOM     15  N28 N44 d         -11.150  43.061  -1.825  0.00  0.00    -0.353 N 
ATOM     16  H25 N44 d         -10.768  43.942  -2.103  0.00  0.00     0.163 HD
ATOM     17  O31 N44 d         -13.026  41.897  -1.221  0.00  0.00    -0.268 OA
BRANCH  15  18
ATOM     18  C24 N44 d         -10.284  41.907  -1.697  0.00  0.00     0.019 C 
ATOM     19  H17 N44 d         -10.876  41.050  -1.343  0.00  0.00     0.071 H 
ATOM     20  H18 N44 d          -9.850  41.672  -2.680  0.00  0.00     0.071 H 
BRANCH  18  21
ATOM     21  C14 N44 d          -9.178  42.173  -0.724  0.00  0.00    -0.041 A 
ATOM     22  C7  N44 d          -8.900  41.272   0.281  0.00  0.00    -0.075 A 
ATOM     23  C3  N44 d          -7.873  41.502   1.166  0.00  0.00    -0.082 A 
ATOM     24  H7  N44 d          -9.497  40.373   0.375  0.00  0.00     0.084 H 
ATOM     25  C1  N44 d          -7.111  42.646   1.058  0.00  0.00    -0.083 A 
ATOM     26  H3  N44 d          -7.663  40.784   1.950  0.00  0.00     0.083 H 
ATOM     27  C4  N44 d          -7.394  43.561   0.069  0.00  0.00    -0.082 A 
ATOM     28  H1  N44 d          -6.294  42.824   1.748  0.00  0.00     0.083 H 
ATOM     29  C8  N44 d          -8.419  43.323  -0.822  0.00  0.00    -0.075 A 
ATOM     30  H4  N44 d          -6.810  44.471  -0.009  0.00  0.00     0.083 H 
ATOM     31  H8  N44 d          -8.630  44.043  -1.605  0.00  0.00     0.084 H 
ENDBRANCH  18  21
ENDBRANCH  15  18
ENDBRANCH  12  14
ENDBRANCH   1   4
BRANCH   1  32
ATOM     32  N29 N44 d         -11.698  46.224   0.741  0.00  0.00    -0.060 N 
ATOM     33  H26 N44 d         -12.082  46.971   0.184  0.00  0.00     0.281 HD
BRANCH  32  34
ATOM     34  C26 N44 d         -10.303  46.067   0.194  0.00  0.00     0.109 C 
ATOM     35  H21 N44 d          -9.653  45.646   0.975  0.00  0.00     0.083 H 
ATOM     36  H22 N44 d         -10.327  45.385  -0.668  0.00  0.00     0.083 H 
BRANCH  34  37
ATOM     37  C16 N44 d          -9.756  47.397  -0.242  0.00  0.00    -0.013 A 
ATOM     38  C10 N44 d         -10.491  48.122  -1.179  0.00  0.00    -0.071 A 
ATOM     39  C11 N44 d         -10.057  49.358  -1.641  0.00  0.00    -0.047 A 
ATOM     40  H10 N44 d         -11.422  47.713  -1.555  0.00  0.00     0.084 H 
ATOM     41  C17 N44 d          -8.866  49.824  -1.132  0.00  0.00     0.106 A 
ATOM     42  H11 N44 d         -10.627  49.927  -2.367  0.00  0.00     0.087 H 
ATOM     43  C18 N44 d          -8.134  49.119  -0.210  0.00  0.00     0.122 A 
ATOM     44  O33 N44 d          -8.284  51.018  -1.478  0.00  0.00    -0.323 OA
ATOM     45  C13 N44 d          -8.546  47.881   0.265  0.00  0.00     0.085 A 
ATOM     46  O34 N44 d          -6.967  49.798   0.142  0.00  0.00    -0.322 OA
ATOM     47  C23 N44 d          -7.092  50.986  -0.662  0.00  0.00     0.115 A 
ATOM     48  H15 N44 d          -7.107  51.858   0.009  0.00  0.00     0.118 H 
ATOM     49  H16 N44 d          -6.216  51.048  -1.325  0.00  0.00     0.118 H 
BRANCH  45  50
ATOM     50  C22 N44 d          -7.741  47.127   1.293  0.00  0.00     0.212 C 
ATOM     51  O30 N44 d          -6.586  46.759   0.942  0.00  0.00    -0.644 OA
ATOM     52  O32 N44 d          -8.208  46.925   2.454  0.00  0.00    -0.644 OA
ENDBRANCH  45  50
ENDBRANCH  34  37
ENDBRANCH  32  34
BRANCH  32  53
ATOM     53  C27 N44 d         -11.790  46.731   2.152  0.00  0.00     0.099 C 
ATOM     54  H23 N44 d         -12.626  46.216   2.647  0.00  0.00     0.082 H 
ATOM     55  H24 N44 d         -10.850  46.487   2.667  0.00  0.00     0.082 H 
BRANCH  53  56
ATOM     56  C20 N44 d         -12.015  48.200   2.266  0.00  0.00    -0.087 C 
ATOM     57  C19 N44 d         -12.880  48.847   1.476  0.00  0.00    -0.123 C 
ATOM     58  H12 N44 d         -13.020  49.921   1.587  0.00  0.00     0.066 H 
ATOM     59  H13 N44 d         -13.444  48.299   0.723  0.00  0.00     0.066 H 
ATOM     60  H14 N44 d         -11.459  48.764   3.013  0.00  0.00     0.078 H 
ENDBRANCH  53  56
ENDBRANCH  32  53
ENDBRANCH   1  32
TORSDOF 10
ENDMDL
MODEL 8
REMARK VINA RESULT:      -7.1      2.424      6.243
REMARK  10 active torsions:
REMARK  status: ('A' for Active; 'I' for Inactive)
REMARK    1  A    between atoms: C12_12  and  C21_21 
REMARK    2  A    between atoms: C13_13  and  C22_22 
REMARK    3  A    between atoms: C24_24  and  C14_14 
REMARK    4  A    between atoms: C25_25  and  C15_15 
REMARK    5  A    between atoms: C26_26  and  C16_16 
REMARK    6  A    between atoms: C27_27  and  C20_20 
REMARK       I    between atoms: C21_21  and  N28_28 
REMARK    7  A    between atoms: N28_28  and  C24_24 
REMARK    8  A    between atoms: N29_29  and  C25_25 
REMARK    9  A    between atoms: N29_29  and  C26_26 
REMARK   10  A    between atoms: C27_27  and  N29_29 
ROOT
ATOM      1  C25 N44 d          -9.907  45.496  -0.626  0.00  0.00     0.109 C 
ATOM      2  H19 N44 d         -10.125  46.174  -1.465  0.00  0.00     0.083 H 
ATOM      3  H20 N44 d          -8.817  45.385  -0.519  0.00  0.00     0.083 H 
ENDROOT
BRANCH   1   4
ATOM      4  C15 N44 d         -10.475  44.159  -0.955  0.00  0.00    -0.017 A 
ATOM      5  C9  N44 d         -11.755  44.115  -1.473  0.00  0.00    -0.074 A 
ATOM      6  C5  N44 d         -12.356  42.912  -1.800  0.00  0.00    -0.082 A 
ATOM      7  H9  N44 d         -12.300  45.040  -1.625  0.00  0.00     0.084 H 
ATOM      8  C2  N44 d         -11.655  41.749  -1.597  0.00  0.00    -0.082 A 
ATOM      9  H5  N44 d         -13.359  42.889  -2.208  0.00  0.00     0.083 H 
ATOM     10  C6  N44 d         -10.373  41.779  -1.081  0.00  0.00    -0.067 A 
ATOM     11  H2  N44 d         -12.111  40.797  -1.844  0.00  0.00     0.083 H 
ATOM     12  C12 N44 d          -9.768  42.981  -0.757  0.00  0.00     0.040 A 
ATOM     13  H6  N44 d          -9.835  40.850  -0.929  0.00  0.00     0.085 H 
BRANCH  12  14
ATOM     14  C21 N44 d          -8.384  42.973  -0.195  0.00  0.00     0.252 C 
ATOM     15  N28 N44 d          -8.196  42.481   1.089  0.00  0.00    -0.353 N 
ATOM     16  H25 N44 d          -8.978  42.139   1.610  0.00  0.00     0.163 HD
ATOM     17  O31 N44 d          -7.464  43.404  -0.873  0.00  0.00    -0.268 OA
BRANCH  15  18
ATOM     18  C24 N44 d          -6.873  42.463   1.678  0.00  0.00     0.019 C 
ATOM     19  H17 N44 d          -6.655  41.449   2.043  0.00  0.00     0.071 H 
ATOM     20  H18 N44 d          -6.134  42.744   0.913  0.00  0.00     0.071 H 
BRANCH  18  21
ATOM     21  C14 N44 d          -6.782  43.424   2.822  0.00  0.00    -0.041 A 
ATOM     22  C7  N44 d          -6.472  42.978   4.088  0.00  0.00    -0.075 A 
ATOM     23  C3  N44 d          -6.370  43.859   5.139  0.00  0.00    -0.082 A 
ATOM     24  H7  N44 d          -6.307  41.920   4.257  0.00  0.00     0.084 H 
ATOM     25  C1  N44 d          -6.583  45.205   4.934  0.00  0.00    -0.083 A 
ATOM     26  H3  N44 d          -6.122  43.494   6.128  0.00  0.00     0.083 H 
ATOM     27  C4  N44 d          -6.912  45.659   3.676  0.00  0.00    -0.082 A 
ATOM     28  H1  N44 d          -6.491  45.903   5.759  0.00  0.00     0.083 H 
ATOM     29  C8  N44 d          -7.006  44.774   2.623  0.00  0.00    -0.075 A 
ATOM     30  H4  N44 d          -7.099  46.714   3.514  0.00  0.00     0.083 H 
ATOM     31  H8  N44 d          -7.256  45.138   1.633  0.00  0.00     0.084 H 
ENDBRANCH  18  21
ENDBRANCH  15  18
ENDBRANCH  12  14
ENDBRANCH   1   4
BRANCH   1  32
ATOM     32  N29 N44 d         -10.429  46.119   0.618  0.00  0.00    -0.060 N 
ATOM     33  H26 N44 d         -11.138  46.758   0.293  0.00  0.00     0.281 HD
BRANCH  32  34
ATOM     34  C26 N44 d          -9.474  47.013   1.364  0.00  0.00     0.109 C 
ATOM     35  H21 N44 d          -8.736  46.392   1.893  0.00  0.00     0.083 H 
ATOM     36  H22 N44 d          -8.956  47.668   0.648  0.00  0.00     0.083 H 
BRANCH  34  37
ATOM     37  C16 N44 d         -10.214  47.858   2.361  0.00  0.00    -0.013 A 
ATOM     38  C10 N44 d         -10.181  47.459   3.698  0.00  0.00    -0.071 A 
ATOM     39  C11 N44 d         -10.842  48.179   4.685  0.00  0.00    -0.047 A 
ATOM     40  H10 N44 d          -9.628  46.568   3.972  0.00  0.00     0.084 H 
ATOM     41  C17 N44 d         -11.531  49.298   4.277  0.00  0.00     0.106 A 
ATOM     42  H11 N44 d         -10.816  47.874   5.725  0.00  0.00     0.087 H 
ATOM     43  C18 N44 d         -11.571  49.700   2.965  0.00  0.00     0.122 A 
ATOM     44  O33 N44 d         -12.244  50.123   5.112  0.00  0.00    -0.323 OA
ATOM     45  C13 N44 d         -10.921  48.996   1.961  0.00  0.00     0.085 A 
ATOM     46  O34 N44 d         -12.339  50.855   2.809  0.00  0.00    -0.322 OA
ATOM     47  C23 N44 d         -12.741  51.099   4.169  0.00  0.00     0.115 A 
ATOM     48  H15 N44 d         -12.368  52.090   4.468  0.00  0.00     0.118 H 
ATOM     49  H16 N44 d         -13.840  51.093   4.211  0.00  0.00     0.118 H 
BRANCH  45  50
ATOM     50  C22 N44 d         -10.957  49.461   0.527  0.00  0.00     0.212 C 
ATOM     51  O30 N44 d         -11.815  48.913  -0.220  0.00  0.00    -0.644 OA
ATOM     52  O32 N44 d         -10.185  50.385   0.131  0.00  0.00    -0.644 OA
ENDBRANCH  45  50
ENDBRANCH  34  37
ENDBRANCH  32  34
BRANCH  32  53
ATOM     53  C27 N44 d         -11.183  45.128   1.456  0.00  0.00     0.099 C 
ATOM     54  H23 N44 d         -11.220  44.174   0.910  0.00  0.00     0.082 H 
ATOM     55  H24 N44 d         -10.636  44.991   2.401  0.00  0.00     0.082 H 
BRANCH  53  56
ATOM     56  C20 N44 d         -12.581  45.531   1.782  0.00  0.00    -0.087 C 
ATOM     57  C19 N44 d         -13.415  46.008   0.851  0.00  0.00    -0.123 C 
ATOM     58  H12 N44 d         -14.430  46.293   1.123  0.00  0.00     0.066 H 
ATOM     59  H13 N44 d         -13.079  46.109  -0.180  0.00  0.00     0.066 H 
ATOM     60  H14 N44 d         -12.933  45.436   2.808  0.00  0.00     0.078 H 
ENDBRANCH  53  56
ENDBRANCH  32  53
ENDBRANCH   1  32
TORSDOF 10
ENDMDL
MODEL 9
REMARK VINA RESULT:      -7.1      2.152      3.263
REMARK  10 active torsions:
REMARK  status: ('A' for Active; 'I' for Inactive)
REMARK    1  A    between atoms: C12_12  and  C21_21 
REMARK    2  A    between atoms: C13_13  and  C22_22 
REMARK    3  A    between atoms: C24_24  and  C14_14 
REMARK    4  A    between atoms: C25_25  and  C15_15 
REMARK    5  A    between atoms: C26_26  and  C16_16 
REMARK    6  A    between atoms: C27_27  and  C20_20 
REMARK       I    between atoms: C21_21  and  N28_28 
REMARK    7  A    between atoms: N28_28  and  C24_24 
REMARK    8  A    between atoms: N29_29  and  C25_25 
REMARK    9  A    between atoms: N29_29  and  C26_26 
REMARK   10  A    between atoms: C27_27  and  N29_29 
ROOT
ATOM      1  C25 N44 d          -9.803  43.614   1.267  0.00  0.00     0.109 C 
ATOM      2  H19 N44 d         -10.459  44.146   1.972  0.00  0.00     0.083 H 
ATOM      3  H20 N44 d         -10.053  42.542   1.272  0.00  0.00     0.083 H 
ENDROOT
BRANCH   1   4
ATOM      4  C15 N44 d          -8.400  43.763   1.742  0.00  0.00    -0.017 A 
ATOM      5  C9  N44 d          -7.603  42.634   1.754  0.00  0.00    -0.074 A 
ATOM      6  C5  N44 d          -6.289  42.689   2.185  0.00  0.00    -0.082 A 
ATOM      7  H9  N44 d          -8.014  41.689   1.420  0.00  0.00     0.084 H 
ATOM      8  C2  N44 d          -5.784  43.893   2.609  0.00  0.00    -0.082 A 
ATOM      9  H5  N44 d          -5.671  41.799   2.188  0.00  0.00     0.083 H 
ATOM     10  C6  N44 d          -6.570  45.029   2.601  0.00  0.00    -0.067 A 
ATOM     11  H2  N44 d          -4.758  43.953   2.954  0.00  0.00     0.083 H 
ATOM     12  C12 N44 d          -7.883  44.979   2.166  0.00  0.00     0.040 A 
ATOM     13  H6  N44 d          -6.154  45.971   2.939  0.00  0.00     0.085 H 
BRANCH  12  14
ATOM     14  C21 N44 d          -8.704  46.227   2.178  0.00  0.00     0.252 C 
ATOM     15  N28 N44 d          -9.883  46.235   2.912  0.00  0.00    -0.353 N 
ATOM     16  H25 N44 d         -10.158  45.419   3.419  0.00  0.00     0.163 HD
ATOM     17  O31 N44 d          -8.323  47.196   1.540  0.00  0.00    -0.268 OA
BRANCH  15  18
ATOM     18  C24 N44 d         -10.715  47.420   2.944  0.00  0.00     0.019 C 
ATOM     19  H17 N44 d         -10.636  47.942   1.979  0.00  0.00     0.071 H 
ATOM     20  H18 N44 d         -11.760  47.122   3.115  0.00  0.00     0.071 H 
BRANCH  18  21
ATOM     21  C14 N44 d         -10.285  48.347   4.037  0.00  0.00    -0.041 A 
ATOM     22  C7  N44 d          -9.828  47.848   5.237  0.00  0.00    -0.075 A 
ATOM     23  C3  N44 d          -9.414  48.694   6.239  0.00  0.00    -0.082 A 
ATOM     24  H7  N44 d          -9.795  46.776   5.394  0.00  0.00     0.084 H 
ATOM     25  C1  N44 d          -9.457  50.060   6.051  0.00  0.00    -0.083 A 
ATOM     26  H3  N44 d          -9.054  48.288   7.177  0.00  0.00     0.083 H 
ATOM     27  C4  N44 d          -9.930  50.569   4.862  0.00  0.00    -0.082 A 
ATOM     28  H1  N44 d          -9.121  50.729   6.835  0.00  0.00     0.083 H 
ATOM     29  C8  N44 d         -10.337  49.716   3.857  0.00  0.00    -0.075 A 
ATOM     30  H4  N44 d          -9.984  51.641   4.716  0.00  0.00     0.083 H 
ATOM     31  H8  N44 d         -10.699  50.123   2.920  0.00  0.00     0.084 H 
ENDBRANCH  18  21
ENDBRANCH  15  18
ENDBRANCH  12  14
ENDBRANCH   1   4
BRANCH   1  32
ATOM     32  N29 N44 d         -10.072  44.141  -0.097  0.00  0.00    -0.060 N 
ATOM     33  H26 N44 d          -9.601  45.033  -0.112  0.00  0.00     0.281 HD
BRANCH  32  34
ATOM     34  C26 N44 d         -11.503  44.500  -0.400  0.00  0.00     0.109 C 
ATOM     35  H21 N44 d         -11.774  44.103  -1.389  0.00  0.00     0.083 H 
ATOM     36  H22 N44 d         -12.157  44.056   0.365  0.00  0.00     0.083 H 
BRANCH  34  37
ATOM     37  C16 N44 d         -11.683  45.991  -0.400  0.00  0.00    -0.013 A 
ATOM     38  C10 N44 d         -10.621  46.771  -0.858  0.00  0.00    -0.071 A 
ATOM     39  C11 N44 d         -10.700  48.157  -0.887  0.00  0.00    -0.047 A 
ATOM     40  H10 N44 d          -9.714  46.284  -1.199  0.00  0.00     0.084 H 
ATOM     41  C17 N44 d         -11.873  48.719  -0.438  0.00  0.00     0.106 A 
ATOM     42  H11 N44 d          -9.878  48.767  -1.246  0.00  0.00     0.087 H 
ATOM     43  C18 N44 d         -12.924  47.962   0.016  0.00  0.00     0.122 A 
ATOM     44  O33 N44 d         -12.123  50.068  -0.389  0.00  0.00    -0.323 OA
ATOM     45  C13 N44 d         -12.868  46.576   0.057  0.00  0.00     0.085 A 
ATOM     46  O34 N44 d         -13.992  48.764   0.421  0.00  0.00    -0.322 OA
ATOM     47  C23 N44 d         -13.465  50.075   0.150  0.00  0.00     0.115 A 
ATOM     48  H15 N44 d         -14.127  50.572  -0.575  0.00  0.00     0.118 H 
ATOM     49  H16 N44 d         -13.456  50.647   1.090  0.00  0.00     0.118 H 
BRANCH  45  50
ATOM     50  C22 N44 d         -14.039  45.757   0.539  0.00  0.00     0.212 C 
ATOM     51  O30 N44 d         -14.753  45.219  -0.352  0.00  0.00    -0.644 OA
ATOM     52  O32 N44 d         -14.245  45.597   1.780  0.00  0.00    -0.644 OA
ENDBRANCH  45  50
ENDBRANCH  34  37
ENDBRANCH  32  34
BRANCH  32  53
ATOM     53  C27 N44 d          -9.366  43.335  -1.148  0.00  0.00     0.099 C 
ATOM     54  H23 N44 d          -9.620  43.756  -2.132  0.00  0.00     0.082 H 
ATOM     55  H24 N44 d          -8.282  43.423  -0.980  0.00  0.00     0.082 H 
BRANCH  53  56
ATOM     56  C20 N44 d          -9.719  41.887  -1.156  0.00  0.00    -0.087 C 
ATOM     57  C19 N44 d         -10.904  41.450  -1.598  0.00  0.00    -0.123 C 
ATOM     58  H12 N44 d         -11.129  40.384  -1.590  0.00  0.00     0.066 H 
ATOM     59  H13 N44 d         -11.643  42.159  -1.966  0.00  0.00     0.066 H 
ATOM     60  H14 N44 d          -8.991  41.163  -0.791  0.00  0.00     0.078 H 
ENDBRANCH  53  56
ENDBRANCH  32  53
ENDBRANCH   1  32
TORSDOF 10
ENDMDL
MODEL 10
REMARK VINA RESULT:      -6.9      2.509      6.406
REMARK  10 active torsions:
REMARK  status: ('A' for Active; 'I' for Inactive)
REMARK    1  A    between atoms: C12_12  and  C21_21 
REMARK    2  A    between atoms: C13_13  and  C22_22 
REMARK    3  A    between atoms: C24_24  and  C14_14 
REMARK    4  A    between atoms: C25_25  and  C15_15 
REMARK    5  A    between atoms: C26_26  and  C16_16 
REMARK    6  A    between atoms: C27_27  and  C20_20 
REMARK       I    between atoms: C21_21  and  N28_28 
REMARK    7  A    between atoms: N28_28  and  C24_24 
REMARK    8  A    between atoms: N29_29  and  C25_25 
REMARK    9  A    between atoms: N29_29  and  C26_26 
REMARK   10  A    between atoms: C27_27  and  N29_29 
ROOT
ATOM      1  C25 N44 d         -10.193  45.269  -0.202  0.00  0.00     0.109 C 
ATOM      2  H19 N44 d          -9.716  45.801  -1.039  0.00  0.00     0.083 H 
ATOM      3  H20 N44 d          -9.466  45.141   0.613  0.00  0.00     0.083 H 
ENDROOT
BRANCH   1   4
ATOM      4  C15 N44 d         -10.588  43.916  -0.684  0.00  0.00    -0.017 A 
ATOM      5  C9  N44 d         -11.873  43.757  -1.168  0.00  0.00    -0.074 A 
ATOM      6  C5  N44 d         -12.318  42.530  -1.630  0.00  0.00    -0.082 A 
ATOM      7  H9  N44 d         -12.544  44.607  -1.186  0.00  0.00     0.084 H 
ATOM      8  C2  N44 d         -11.456  41.461  -1.597  0.00  0.00    -0.082 A 
ATOM      9  H5  N44 d         -13.325  42.416  -2.011  0.00  0.00     0.083 H 
ATOM     10  C6  N44 d         -10.169  41.608  -1.116  0.00  0.00    -0.067 A 
ATOM     11  H2  N44 d         -11.789  40.492  -1.951  0.00  0.00     0.083 H 
ATOM     12  C12 N44 d          -9.719  42.834  -0.658  0.00  0.00     0.040 A 
ATOM     13  H6  N44 d          -9.503  40.753  -1.098  0.00  0.00     0.085 H 
BRANCH  12  14
ATOM     14  C21 N44 d          -8.324  42.952  -0.139  0.00  0.00     0.252 C 
ATOM     15  N28 N44 d          -8.053  42.485   1.140  0.00  0.00    -0.353 N 
ATOM     16  H25 N44 d          -8.784  42.076   1.686  0.00  0.00     0.163 HD
ATOM     17  O31 N44 d          -7.467  43.460  -0.846  0.00  0.00    -0.268 OA
BRANCH  15  18
ATOM     18  C24 N44 d          -6.716  42.588   1.688  0.00  0.00     0.019 C 
ATOM     19  H17 N44 d          -6.366  41.585   1.975  0.00  0.00     0.071 H 
ATOM     20  H18 N44 d          -6.045  43.005   0.922  0.00  0.00     0.071 H 
BRANCH  18  21
ATOM     21  C14 N44 d          -6.697  43.475   2.892  0.00  0.00    -0.041 A 
ATOM     22  C7  N44 d          -7.040  44.805   2.786  0.00  0.00    -0.075 A 
ATOM     23  C3  N44 d          -7.042  45.621   3.893  0.00  0.00    -0.082 A 
ATOM     24  H7  N44 d          -7.310  45.213   1.819  0.00  0.00     0.084 H 
ATOM     25  C1  N44 d          -6.695  45.113   5.127  0.00  0.00    -0.083 A 
ATOM     26  H3  N44 d          -7.317  46.665   3.796  0.00  0.00     0.083 H 
ATOM     27  C4  N44 d          -6.332  43.789   5.240  0.00  0.00    -0.082 A 
ATOM     28  H1  N44 d          -6.707  45.751   6.003  0.00  0.00     0.083 H 
ATOM     29  C8  N44 d          -6.339  42.972   4.129  0.00  0.00    -0.075 A 
ATOM     30  H4  N44 d          -6.040  43.389   6.204  0.00  0.00     0.083 H 
ATOM     31  H8  N44 d          -6.061  41.928   4.226  0.00  0.00     0.084 H 
ENDBRANCH  18  21
ENDBRANCH  15  18
ENDBRANCH  12  14
ENDBRANCH   1   4
BRANCH   1  32
ATOM     32  N29 N44 d         -11.307  46.113   0.304  0.00  0.00    -0.060 N 
ATOM     33  H26 N44 d         -12.071  45.913  -0.322  0.00  0.00     0.281 HD
BRANCH  32  34
ATOM     34  C26 N44 d         -11.127  47.602   0.166  0.00  0.00     0.109 C 
ATOM     35  H21 N44 d         -10.944  47.848  -0.890  0.00  0.00     0.083 H 
ATOM     36  H22 N44 d         -12.040  48.111   0.508  0.00  0.00     0.083 H 
BRANCH  34  37
ATOM     37  C16 N44 d          -9.961  48.070   0.991  0.00  0.00    -0.013 A 
ATOM     38  C10 N44 d          -8.680  47.794   0.514  0.00  0.00    -0.071 A 
ATOM     39  C11 N44 d          -7.546  48.185   1.215  0.00  0.00    -0.047 A 
ATOM     40  H10 N44 d          -8.566  47.264  -0.425  0.00  0.00     0.084 H 
ATOM     41  C17 N44 d          -7.753  48.851   2.401  0.00  0.00     0.106 A 
ATOM     42  H11 N44 d          -6.548  47.976   0.845  0.00  0.00     0.087 H 
ATOM     43  C18 N44 d          -9.009  49.126   2.881  0.00  0.00     0.122 A 
ATOM     44  O33 N44 d          -6.753  49.304   3.226  0.00  0.00    -0.323 OA
ATOM     45  C13 N44 d         -10.156  48.744   2.200  0.00  0.00     0.085 A 
ATOM     46  O34 N44 d          -8.952  49.801   4.102  0.00  0.00    -0.322 OA
ATOM     47  C23 N44 d          -7.529  49.903   4.289  0.00  0.00     0.115 A 
ATOM     48  H15 N44 d          -7.263  50.969   4.352  0.00  0.00     0.118 H 
ATOM     49  H16 N44 d          -7.266  49.403   5.233  0.00  0.00     0.118 H 
BRANCH  45  50
ATOM     50  C22 N44 d         -11.530  49.071   2.729  0.00  0.00     0.212 C 
ATOM     51  O30 N44 d         -11.966  48.331   3.654  0.00  0.00    -0.644 OA
ATOM     52  O32 N44 d         -12.170  50.069   2.281  0.00  0.00    -0.644 OA
ENDBRANCH  45  50
ENDBRANCH  34  37
ENDBRANCH  32  34
BRANCH  32  53
ATOM     53  C27 N44 d         -11.794  45.638   1.642  0.00  0.00     0.099 C 
ATOM     54  H23 N44 d         -11.399  44.625   1.811  0.00  0.00     0.082 H 
ATOM     55  H24 N44 d         -11.401  46.318   2.412  0.00  0.00     0.082 H 
BRANCH  53  56
ATOM     56  C20 N44 d         -13.277  45.589   1.778  0.00  0.00    -0.087 C 
ATOM     57  C19 N44 d         -14.091  45.961   0.783  0.00  0.00    -0.123 C 
ATOM     58  H12 N44 d         -15.171  45.912   0.916  0.00  0.00     0.066 H 
ATOM     59  H13 N44 d         -13.674  46.312  -0.159  0.00  0.00     0.066 H 
ATOM     60  H14 N44 d         -13.711  45.240   2.714  0.00  0.00     0.078 H 
ENDBRANCH  53  56
ENDBRANCH  32  53
ENDBRANCH   1  32
TORSDOF 10
ENDMDL
