MODEL 1
REMARK VINA RESULT:      -6.1      0.000      0.000
REMARK  19 active torsions:
REMARK  status: ('A' for Active; 'I' for Inactive)
REMARK    1  A    between atoms: C2_4  and  C1_2 
REMARK    2  A    between atoms: O2_17  and  C2_4 
REMARK    3  A    between atoms: C6_6  and  C7_7 
REMARK    4  A    between atoms: C7_7  and  C8_8 
REMARK    5  A    between atoms: C7_7  and  O7_10 
REMARK    6  A    between atoms: C8_8  and  O8_9 
REMARK    7  A    between atoms: C5_11  and  O5_12 
REMARK    8  A    between atoms: C4_13  and  O4_14 
REMARK    9  A    between atoms: C3_15  and  O3_16 
REMARK   10  A    between atoms: C4_23  and  O2_17 
REMARK   11  A    between atoms: C2_21  and  C1_18 
REMARK   12  A    between atoms: C2_21  and  O2_32 
REMARK   13  A    between atoms: C5_24  and  O5_25 
REMARK   14  A    between atoms: C6_26  and  C7_28 
REMARK   15  A    between atoms: C7_28  and  O7_29 
REMARK   16  A    between atoms: C7_28  and  C8_30 
REMARK   17  A    between atoms: C8_30  and  O8_31 
REMARK   18  A    between atoms: O2_32  and  C9_33 
REMARK   19  A    between atoms: C9_33  and  C10_34 
ROOT
ATOM      1  C2  KO1 d          -7.019  -0.241  69.662  0.00  0.00     0.259 C 
ATOM      2  C3  KO1 d          -7.003   0.140  68.148  0.00  0.00     0.024 C 
ATOM      3  C4  KO1 d          -8.211   0.975  67.654  0.00  0.00     0.075 C 
ATOM      4  C5  KO1 d          -9.607   0.447  68.076  0.00  0.00     0.088 C 
ATOM      5  C6  KO1 d          -9.584   0.239  69.621  0.00  0.00     0.096 C 
ATOM      6  O6  KO1 d          -8.391  -0.536  70.055  0.00  0.00    -0.336 OA
ATOM      7  H13 KO1 d          -6.975  -0.793  67.565  0.00  0.00     0.045 H 
ATOM      8  H14 KO1 d          -6.089   0.721  67.955  0.00  0.00     0.045 H 
ATOM      9  H15 KO1 d          -8.084   1.988  68.063  0.00  0.00     0.087 H 
ATOM     10  H16 KO1 d         -10.357   1.218  67.846  0.00  0.00     0.091 H 
ATOM     11  H18 KO1 d          -9.482   1.239  70.069  0.00  0.00     0.091 H 
ENDROOT
BRANCH   3  12
ATOM     12  O2  KO1 d          -8.299   1.059  66.196  0.00  0.00    -0.336 OA
BRANCH  12  13
ATOM     13  C2  KO1 d          -8.964   2.207  65.564  0.00  0.00     0.286 C 
ATOM     14  O6  KO1 d          -8.840   3.422  66.529  0.00  0.00    -0.334 OA
ATOM     15  C6  KO1 d          -7.392   3.611  66.916  0.00  0.00     0.096 C 
ATOM     16  C5  KO1 d          -6.594   4.009  65.671  0.00  0.00     0.090 C 
ATOM     17  H1  KO1 d          -6.967   2.678  67.314  0.00  0.00     0.091 H 
ATOM     18  C4  KO1 d          -6.683   2.858  64.633  0.00  0.00     0.093 C 
ATOM     19  H7  KO1 d          -5.543   4.187  65.943  0.00  0.00     0.091 H 
ATOM     20  C3  KO1 d          -8.142   2.454  64.257  0.00  0.00     0.127 C 
ATOM     21  H9  KO1 d          -6.191   1.974  65.064  0.00  0.00     0.091 H 
ATOM     22  H11 KO1 d          -8.111   1.553  63.628  0.00  0.00     0.096 H 
BRANCH  13  23
ATOM     23  C1  KO1 d         -10.460   2.061  65.202  0.00  0.00     0.241 C 
ATOM     24  OA1 KO1 d         -10.793   1.434  64.160  0.00  0.00    -0.644 OA
ATOM     25  O1B KO1 d         -11.302   2.554  65.954  0.00  0.00    -0.644 OA
ENDBRANCH  13  23
BRANCH  15  26
ATOM     26  C7  KO1 d          -7.460   4.674  68.053  0.00  0.00     0.083 C 
ATOM     27  H2  KO1 d          -8.035   4.259  68.894  0.00  0.00     0.090 H 
BRANCH  26  28
ATOM     28  C8  KO1 d          -6.074   5.056  68.612  0.00  0.00     0.043 C 
ATOM     29  H3  KO1 d          -5.449   5.544  67.850  0.00  0.00     0.078 H 
ATOM     30  H4  KO1 d          -5.545   4.182  69.017  0.00  0.00     0.078 H 
BRANCH  28  31
ATOM     31  O8  KO1 d          -6.458   5.978  69.657  0.00  0.00    -0.398 OA
ATOM     32  H5  KO1 d          -7.401   6.091  69.647  0.00  0.00     0.209 HD
ENDBRANCH  28  31
ENDBRANCH  26  28
BRANCH  26  33
ATOM     33  O7  KO1 d          -8.208   5.738  67.483  0.00  0.00    -0.391 OA
ATOM     34  H6  KO1 d          -7.701   6.143  66.788  0.00  0.00     0.210 HD
ENDBRANCH  26  33
ENDBRANCH  15  26
BRANCH  16  35
ATOM     35  O5  KO1 d          -7.159   5.204  65.102  0.00  0.00    -0.390 OA
ATOM     36  H8  KO1 d          -7.688   4.974  64.347  0.00  0.00     0.210 HD
ENDBRANCH  16  35
BRANCH  18  37
ATOM     37  O4  KO1 d          -5.986   3.246  63.472  0.00  0.00    -0.390 OA
ATOM     38  H10 KO1 d          -5.120   3.554  63.713  0.00  0.00     0.210 HD
ENDBRANCH  18  37
BRANCH  20  39
ATOM     39  O3  KO1 d          -8.881   3.473  63.615  0.00  0.00    -0.387 OA
ATOM     40  H12 KO1 d          -8.528   3.619  62.745  0.00  0.00     0.210 HD
ENDBRANCH  20  39
ENDBRANCH  12  13
ENDBRANCH   3  12
BRANCH   4  41
ATOM     41  O5  KO1 d          -9.973  -0.752  67.329  0.00  0.00    -0.390 OA
ATOM     42  H17 KO1 d          -9.622  -1.518  67.769  0.00  0.00     0.210 HD
ENDBRANCH   4  41
BRANCH   1  43
ATOM     43  C1  KO1 d          -6.123  -1.516  69.780  0.00  0.00     0.239 C 
ATOM     44  O1A KO1 d          -5.847  -1.870  70.959  0.00  0.00    -0.644 OA
ATOM     45  O1B KO1 d          -5.710  -2.107  68.727  0.00  0.00    -0.644 OA
ENDBRANCH   1  43
BRANCH   1  46
ATOM     46  O2  KO1 d          -6.595   0.814  70.557  0.00  0.00    -0.343 OA
BRANCH  46  47
ATOM     47  C9  KO1 d          -6.165   1.254  71.805  0.00  0.00     0.038 C 
ATOM     48  H24 KO1 d          -5.778   2.270  71.635  0.00  0.00     0.080 H 
ATOM     49  H25 KO1 d          -5.336   0.585  72.077  0.00  0.00     0.080 H 
BRANCH  47  50
ATOM     50  C10 KO1 d          -6.961   1.350  72.970  0.00  0.00    -0.089 C 
ATOM     51  C11 KO1 d          -8.359   1.221  72.970  0.00  0.00    -0.123 C 
ATOM     52  H27 KO1 d          -8.914   1.306  73.903  0.00  0.00     0.066 H 
ATOM     53  H28 KO1 d          -8.889   1.035  72.037  0.00  0.00     0.066 H 
ATOM     54  H26 KO1 d          -6.461   1.536  73.920  0.00  0.00     0.078 H 
ENDBRANCH  47  50
ENDBRANCH  46  47
ENDBRANCH   1  46
BRANCH   5  55
ATOM     55  C7  KO1 d         -10.918  -0.343  70.163  0.00  0.00     0.083 C 
ATOM     56  H19 KO1 d         -11.677  -0.176  69.383  0.00  0.00     0.090 H 
BRANCH  55  57
ATOM     57  O7  KO1 d         -11.348   0.360  71.350  0.00  0.00    -0.391 OA
ATOM     58  H20 KO1 d         -10.587   0.684  71.817  0.00  0.00     0.210 HD
ENDBRANCH  55  57
BRANCH  55  59
ATOM     59  C8  KO1 d         -10.879  -1.876  70.440  0.00  0.00     0.043 C 
ATOM     60  H21 KO1 d         -11.686  -2.129  71.143  0.00  0.00     0.078 H 
ATOM     61  H22 KO1 d          -9.908  -2.130  70.889  0.00  0.00     0.078 H 
BRANCH  59  62
ATOM     62  O8  KO1 d         -11.052  -2.656  69.229  0.00  0.00    -0.398 OA
ATOM     63  H23 KO1 d         -11.882  -3.118  69.267  0.00  0.00     0.209 HD
ENDBRANCH  59  62
ENDBRANCH  55  59
ENDBRANCH   5  55
TORSDOF 19
ENDMDL
MODEL 2
REMARK VINA RESULT:      -6.1      1.819      2.547
REMARK  19 active torsions:
REMARK  status: ('A' for Active; 'I' for Inactive)
REMARK    1  A    between atoms: C2_4  and  C1_2 
REMARK    2  A    between atoms: O2_17  and  C2_4 
REMARK    3  A    between atoms: C6_6  and  C7_7 
REMARK    4  A    between atoms: C7_7  and  C8_8 
REMARK    5  A    between atoms: C7_7  and  O7_10 
REMARK    6  A    between atoms: C8_8  and  O8_9 
REMARK    7  A    between atoms: C5_11  and  O5_12 
REMARK    8  A    between atoms: C4_13  and  O4_14 
REMARK    9  A    between atoms: C3_15  and  O3_16 
REMARK   10  A    between atoms: C4_23  and  O2_17 
REMARK   11  A    between atoms: C2_21  and  C1_18 
REMARK   12  A    between atoms: C2_21  and  O2_32 
REMARK   13  A    between atoms: C5_24  and  O5_25 
REMARK   14  A    between atoms: C6_26  and  C7_28 
REMARK   15  A    between atoms: C7_28  and  O7_29 
REMARK   16  A    between atoms: C7_28  and  C8_30 
REMARK   17  A    between atoms: C8_30  and  O8_31 
REMARK   18  A    between atoms: O2_32  and  C9_33 
REMARK   19  A    between atoms: C9_33  and  C10_34 
ROOT
ATOM      1  C2  KO1 d          -6.636   1.369  71.339  0.00  0.00     0.259 C 
ATOM      2  C3  KO1 d          -6.444   1.432  69.791  0.00  0.00     0.024 C 
ATOM      3  C4  KO1 d          -7.722   1.200  68.946  0.00  0.00     0.075 C 
ATOM      4  C5  KO1 d          -8.576  -0.031  69.347  0.00  0.00     0.088 C 
ATOM      5  C6  KO1 d          -8.851   0.066  70.879  0.00  0.00     0.096 C 
ATOM      6  O6  KO1 d          -7.603   0.323  71.647  0.00  0.00    -0.336 OA
ATOM      7  H13 KO1 d          -5.709   0.663  69.511  0.00  0.00     0.045 H 
ATOM      8  H14 KO1 d          -6.048   2.427  69.539  0.00  0.00     0.045 H 
ATOM      9  H15 KO1 d          -8.341   2.103  69.054  0.00  0.00     0.087 H 
ATOM     10  H16 KO1 d          -9.540   0.026  68.822  0.00  0.00     0.091 H 
ATOM     11  H18 KO1 d          -9.491   0.948  71.026  0.00  0.00     0.091 H 
ENDROOT
BRANCH   3  12
ATOM     12  O2  KO1 d          -7.445   0.982  67.526  0.00  0.00    -0.336 OA
BRANCH  12  13
ATOM     13  C2  KO1 d          -8.392   1.463  66.509  0.00  0.00     0.286 C 
ATOM     14  O6  KO1 d          -8.676   2.966  66.795  0.00  0.00    -0.334 OA
ATOM     15  C6  KO1 d          -7.368   3.714  66.906  0.00  0.00     0.096 C 
ATOM     16  C5  KO1 d          -6.669   3.694  65.545  0.00  0.00     0.090 C 
ATOM     17  H1  KO1 d          -6.704   3.236  67.642  0.00  0.00     0.091 H 
ATOM     18  C4  KO1 d          -6.366   2.220  65.161  0.00  0.00     0.093 C 
ATOM     19  H7  KO1 d          -5.731   4.267  65.598  0.00  0.00     0.091 H 
ATOM     20  C3  KO1 d          -7.621   1.295  65.159  0.00  0.00     0.127 C 
ATOM     21  H9  KO1 d          -5.654   1.818  65.897  0.00  0.00     0.091 H 
ATOM     22  H11 KO1 d          -7.297   0.254  65.012  0.00  0.00     0.096 H 
BRANCH  13  23
ATOM     23  C1  KO1 d          -9.759   0.749  66.406  0.00  0.00     0.241 C 
ATOM     24  OA1 KO1 d         -10.789   1.412  66.108  0.00  0.00    -0.644 OA
ATOM     25  O1B KO1 d          -9.809  -0.465  66.606  0.00  0.00    -0.644 OA
ENDBRANCH  13  23
BRANCH  15  26
ATOM     26  C7  KO1 d          -7.800   5.115  67.433  0.00  0.00     0.083 C 
ATOM     27  H2  KO1 d          -7.467   5.882  66.719  0.00  0.00     0.090 H 
BRANCH  26  28
ATOM     28  C8  KO1 d          -9.329   5.270  67.565  0.00  0.00     0.043 C 
ATOM     29  H3  KO1 d          -9.597   6.101  68.235  0.00  0.00     0.078 H 
ATOM     30  H4  KO1 d          -9.801   4.344  67.922  0.00  0.00     0.078 H 
BRANCH  28  31
ATOM     31  O8  KO1 d          -9.683   5.556  66.193  0.00  0.00    -0.398 OA
ATOM     32  H5  KO1 d          -8.904   5.518  65.652  0.00  0.00     0.209 HD
ENDBRANCH  28  31
ENDBRANCH  26  28
BRANCH  26  33
ATOM     33  O7  KO1 d          -7.061   5.272  68.635  0.00  0.00    -0.391 OA
ATOM     34  H6  KO1 d          -6.568   4.478  68.809  0.00  0.00     0.210 HD
ENDBRANCH  26  33
ENDBRANCH  15  26
BRANCH  16  35
ATOM     35  O5  KO1 d          -7.536   4.272  64.552  0.00  0.00    -0.390 OA
ATOM     36  H8  KO1 d          -8.179   4.827  64.979  0.00  0.00     0.210 HD
ENDBRANCH  16  35
BRANCH  18  37
ATOM     37  O4  KO1 d          -5.764   2.203  63.888  0.00  0.00    -0.390 OA
ATOM     38  H10 KO1 d          -4.893   2.579  63.946  0.00  0.00     0.210 HD
ENDBRANCH  18  37
BRANCH  20  39
ATOM     39  O3  KO1 d          -8.600   1.642  64.200  0.00  0.00    -0.387 OA
ATOM     40  H12 KO1 d          -8.274   2.353  63.661  0.00  0.00     0.210 HD
ENDBRANCH  20  39
ENDBRANCH  12  13
ENDBRANCH   3  12
BRANCH   4  41
ATOM     41  O5  KO1 d          -7.935  -1.279  68.945  0.00  0.00    -0.390 OA
ATOM     42  H17 KO1 d          -7.160  -1.421  69.475  0.00  0.00     0.210 HD
ENDBRANCH   4  41
BRANCH   1  43
ATOM     43  C1  KO1 d          -5.231   1.012  71.919  0.00  0.00     0.239 C 
ATOM     44  O1A KO1 d          -4.297   1.790  71.581  0.00  0.00    -0.644 OA
ATOM     45  O1B KO1 d          -5.088  -0.017  72.661  0.00  0.00    -0.644 OA
ENDBRANCH   1  43
BRANCH   1  46
ATOM     46  O2  KO1 d          -7.188   2.570  71.930  0.00  0.00    -0.343 OA
BRANCH  46  47
ATOM     47  C9  KO1 d          -8.265   3.400  72.220  0.00  0.00     0.038 C 
ATOM     48  H24 KO1 d          -7.840   4.232  72.801  0.00  0.00     0.080 H 
ATOM     49  H25 KO1 d          -8.925   2.802  72.866  0.00  0.00     0.080 H 
BRANCH  47  50
ATOM     50  C10 KO1 d          -9.123   4.008  71.275  0.00  0.00    -0.089 C 
ATOM     51  C11 KO1 d         -10.372   4.560  71.601  0.00  0.00    -0.123 C 
ATOM     52  H27 KO1 d         -10.987   5.014  70.825  0.00  0.00     0.066 H 
ATOM     53  H28 KO1 d         -10.728   4.534  72.631  0.00  0.00     0.066 H 
ATOM     54  H26 KO1 d          -8.798   4.050  70.237  0.00  0.00     0.078 H 
ENDBRANCH  47  50
ENDBRANCH  46  47
ENDBRANCH   1  46
BRANCH   5  55
ATOM     55  C7  KO1 d          -9.658  -1.148  71.416  0.00  0.00     0.083 C 
ATOM     56  H19 KO1 d          -9.744  -1.865  70.585  0.00  0.00     0.090 H 
BRANCH  55  57
ATOM     57  O7  KO1 d         -10.995  -0.755  71.797  0.00  0.00    -0.391 OA
ATOM     58  H20 KO1 d         -11.182   0.108  71.447  0.00  0.00     0.210 HD
ENDBRANCH  55  57
BRANCH  55  59
ATOM     59  C8  KO1 d          -8.970  -1.898  72.596  0.00  0.00     0.043 C 
ATOM     60  H21 KO1 d          -9.681  -2.626  73.014  0.00  0.00     0.078 H 
ATOM     61  H22 KO1 d          -8.697  -1.167  73.371  0.00  0.00     0.078 H 
BRANCH  59  62
ATOM     62  O8  KO1 d          -7.773  -2.602  72.175  0.00  0.00    -0.398 OA
ATOM     63  H23 KO1 d          -7.019  -2.237  72.622  0.00  0.00     0.209 HD
ENDBRANCH  59  62
ENDBRANCH  55  59
ENDBRANCH   5  55
TORSDOF 19
ENDMDL
MODEL 3
REMARK VINA RESULT:      -5.2      2.324      4.737
REMARK  19 active torsions:
REMARK  status: ('A' for Active; 'I' for Inactive)
REMARK    1  A    between atoms: C2_4  and  C1_2 
REMARK    2  A    between atoms: O2_17  and  C2_4 
REMARK    3  A    between atoms: C6_6  and  C7_7 
REMARK    4  A    between atoms: C7_7  and  C8_8 
REMARK    5  A    between atoms: C7_7  and  O7_10 
REMARK    6  A    between atoms: C8_8  and  O8_9 
REMARK    7  A    between atoms: C5_11  and  O5_12 
REMARK    8  A    between atoms: C4_13  and  O4_14 
REMARK    9  A    between atoms: C3_15  and  O3_16 
REMARK   10  A    between atoms: C4_23  and  O2_17 
REMARK   11  A    between atoms: C2_21  and  C1_18 
REMARK   12  A    between atoms: C2_21  and  O2_32 
REMARK   13  A    between atoms: C5_24  and  O5_25 
REMARK   14  A    between atoms: C6_26  and  C7_28 
REMARK   15  A    between atoms: C7_28  and  O7_29 
REMARK   16  A    between atoms: C7_28  and  C8_30 
REMARK   17  A    between atoms: C8_30  and  O8_31 
REMARK   18  A    between atoms: O2_32  and  C9_33 
REMARK   19  A    between atoms: C9_33  and  C10_34 
ROOT
ATOM      1  C2  KO1 d          -8.831   1.309  71.448  0.00  0.00     0.259 C 
ATOM      2  C3  KO1 d          -9.022   1.614  69.929  0.00  0.00     0.024 C 
ATOM      3  C4  KO1 d          -8.459   2.973  69.442  0.00  0.00     0.075 C 
ATOM      4  C5  KO1 d          -8.840   4.204  70.304  0.00  0.00     0.088 C 
ATOM      5  C6  KO1 d          -8.475   3.873  71.784  0.00  0.00     0.096 C 
ATOM      6  O6  KO1 d          -9.005   2.547  72.198  0.00  0.00    -0.336 OA
ATOM      7  H13 KO1 d         -10.101   1.598  69.715  0.00  0.00     0.045 H 
ATOM      8  H14 KO1 d          -8.523   0.817  69.359  0.00  0.00     0.045 H 
ATOM      9  H15 KO1 d          -7.363   2.877  69.436  0.00  0.00     0.087 H 
ATOM     10  H16 KO1 d          -8.227   5.059  69.984  0.00  0.00     0.091 H 
ATOM     11  H18 KO1 d          -7.379   3.794  71.824  0.00  0.00     0.091 H 
ENDROOT
BRANCH   3  12
ATOM     12  O2  KO1 d          -8.910   3.338  68.099  0.00  0.00    -0.336 OA
BRANCH  12  13
ATOM     13  C2  KO1 d          -7.950   3.863  67.117  0.00  0.00     0.286 C 
ATOM     14  O6  KO1 d          -7.618   2.718  66.115  0.00  0.00    -0.334 OA
ATOM     15  C6  KO1 d          -8.902   2.145  65.562  0.00  0.00     0.096 C 
ATOM     16  C5  KO1 d          -9.602   3.216  64.724  0.00  0.00     0.090 C 
ATOM     17  H1  KO1 d          -9.579   1.845  66.376  0.00  0.00     0.091 H 
ATOM     18  C4  KO1 d          -9.952   4.418  65.642  0.00  0.00     0.093 C 
ATOM     19  H7  KO1 d         -10.522   2.802  64.283  0.00  0.00     0.091 H 
ATOM     20  C3  KO1 d          -8.727   5.015  66.400  0.00  0.00     0.127 C 
ATOM     21  H9  KO1 d         -10.676   4.071  66.394  0.00  0.00     0.091 H 
ATOM     22  H11 KO1 d          -9.084   5.764  67.121  0.00  0.00     0.096 H 
BRANCH  13  23
ATOM     23  C1  KO1 d          -6.606   4.411  67.648  0.00  0.00     0.241 C 
ATOM     24  OA1 KO1 d          -5.558   3.721  67.529  0.00  0.00    -0.644 OA
ATOM     25  O1B KO1 d          -6.588   5.527  68.170  0.00  0.00    -0.644 OA
ENDBRANCH  13  23
BRANCH  15  26
ATOM     26  C7  KO1 d          -8.425   0.876  64.793  0.00  0.00     0.083 C 
ATOM     27  H2  KO1 d          -8.718   0.969  63.738  0.00  0.00     0.090 H 
BRANCH  26  28
ATOM     28  C8  KO1 d          -6.894   0.694  64.811  0.00  0.00     0.043 C 
ATOM     29  H3  KO1 d          -6.599  -0.311  64.474  0.00  0.00     0.078 H 
ATOM     30  H4  KO1 d          -6.474   0.882  65.810  0.00  0.00     0.078 H 
BRANCH  28  31
ATOM     31  O8  KO1 d          -6.497   1.712  63.865  0.00  0.00    -0.398 OA
ATOM     32  H5  KO1 d          -5.554   1.825  63.901  0.00  0.00     0.209 HD
ENDBRANCH  28  31
ENDBRANCH  26  28
BRANCH  26  33
ATOM     33  O7  KO1 d          -9.176  -0.179  65.375  0.00  0.00    -0.391 OA
ATOM     34  H6  KO1 d         -10.022  -0.238  64.946  0.00  0.00     0.210 HD
ENDBRANCH  26  33
ENDBRANCH  15  26
BRANCH  16  35
ATOM     35  O5  KO1 d          -8.719   3.660  63.678  0.00  0.00    -0.390 OA
ATOM     36  H8  KO1 d          -9.064   4.457  63.291  0.00  0.00     0.210 HD
ENDBRANCH  16  35
BRANCH  18  37
ATOM     37  O4  KO1 d         -10.556   5.420  64.857  0.00  0.00    -0.390 OA
ATOM     38  H10 KO1 d         -10.952   6.070  65.426  0.00  0.00     0.210 HD
ENDBRANCH  18  37
BRANCH  20  39
ATOM     39  O3  KO1 d          -7.739   5.577  65.560  0.00  0.00    -0.387 OA
ATOM     40  H12 KO1 d          -7.743   6.522  65.657  0.00  0.00     0.210 HD
ENDBRANCH  20  39
ENDBRANCH  12  13
ENDBRANCH   3  12
BRANCH   4  41
ATOM     41  O5  KO1 d         -10.239   4.576  70.116  0.00  0.00    -0.390 OA
ATOM     42  H17 KO1 d         -10.608   4.852  70.946  0.00  0.00     0.210 HD
ENDBRANCH   4  41
BRANCH   1  43
ATOM     43  C1  KO1 d          -9.950   0.280  71.810  0.00  0.00     0.239 C 
ATOM     44  O1A KO1 d          -9.538  -0.822  72.263  0.00  0.00    -0.644 OA
ATOM     45  O1B KO1 d         -11.177   0.577  71.622  0.00  0.00    -0.644 OA
ENDBRANCH   1  43
BRANCH   1  46
ATOM     46  O2  KO1 d          -7.512   0.838  71.810  0.00  0.00    -0.343 OA
BRANCH  46  47
ATOM     47  C9  KO1 d          -6.135   0.801  71.612  0.00  0.00     0.038 C 
ATOM     48  H24 KO1 d          -5.792   1.833  71.773  0.00  0.00     0.080 H 
ATOM     49  H25 KO1 d          -6.003   0.530  70.554  0.00  0.00     0.080 H 
BRANCH  47  50
ATOM     50  C10 KO1 d          -5.217  -0.010  72.319  0.00  0.00    -0.089 C 
ATOM     51  C11 KO1 d          -4.378   0.472  73.337  0.00  0.00    -0.123 C 
ATOM     52  H27 KO1 d          -3.692  -0.205  73.843  0.00  0.00     0.066 H 
ATOM     53  H28 KO1 d          -4.413   1.523  73.621  0.00  0.00     0.066 H 
ATOM     54  H26 KO1 d          -5.157  -1.066  72.060  0.00  0.00     0.078 H 
ENDBRANCH  47  50
ENDBRANCH  46  47
ENDBRANCH   1  46
BRANCH   5  55
ATOM     55  C7  KO1 d          -8.862   5.016  72.762  0.00  0.00     0.083 C 
ATOM     56  H19 KO1 d          -9.162   5.876  72.143  0.00  0.00     0.090 H 
BRANCH  55  57
ATOM     57  O7  KO1 d          -7.727   5.425  73.558  0.00  0.00    -0.391 OA
ATOM     58  H20 KO1 d          -7.931   5.311  74.479  0.00  0.00     0.210 HD
ENDBRANCH  55  57
BRANCH  55  59
ATOM     59  C8  KO1 d         -10.067   4.680  73.690  0.00  0.00     0.043 C 
ATOM     60  H21 KO1 d         -10.314   5.571  74.286  0.00  0.00     0.078 H 
ATOM     61  H22 KO1 d          -9.778   3.858  74.363  0.00  0.00     0.078 H 
BRANCH  59  62
ATOM     62  O8  KO1 d         -11.242   4.279  72.940  0.00  0.00    -0.398 OA
ATOM     63  H23 KO1 d         -12.020   4.612  73.371  0.00  0.00     0.209 HD
ENDBRANCH  59  62
ENDBRANCH  55  59
ENDBRANCH   5  55
TORSDOF 19
ENDMDL
MODEL 4
REMARK VINA RESULT:      -5.0      2.106      3.353
REMARK  19 active torsions:
REMARK  status: ('A' for Active; 'I' for Inactive)
REMARK    1  A    between atoms: C2_4  and  C1_2 
REMARK    2  A    between atoms: O2_17  and  C2_4 
REMARK    3  A    between atoms: C6_6  and  C7_7 
REMARK    4  A    between atoms: C7_7  and  C8_8 
REMARK    5  A    between atoms: C7_7  and  O7_10 
REMARK    6  A    between atoms: C8_8  and  O8_9 
REMARK    7  A    between atoms: C5_11  and  O5_12 
REMARK    8  A    between atoms: C4_13  and  O4_14 
REMARK    9  A    between atoms: C3_15  and  O3_16 
REMARK   10  A    between atoms: C4_23  and  O2_17 
REMARK   11  A    between atoms: C2_21  and  C1_18 
REMARK   12  A    between atoms: C2_21  and  O2_32 
REMARK   13  A    between atoms: C5_24  and  O5_25 
REMARK   14  A    between atoms: C6_26  and  C7_28 
REMARK   15  A    between atoms: C7_28  and  O7_29 
REMARK   16  A    between atoms: C7_28  and  C8_30 
REMARK   17  A    between atoms: C8_30  and  O8_31 
REMARK   18  A    between atoms: O2_32  and  C9_33 
REMARK   19  A    between atoms: C9_33  and  C10_34 
ROOT
ATOM      1  C2  KO1 d          -6.457   1.241  72.011  0.00  0.00     0.259 C 
ATOM      2  C3  KO1 d          -6.754   1.475  70.497  0.00  0.00     0.024 C 
ATOM      3  C4  KO1 d          -8.179   1.086  70.025  0.00  0.00     0.075 C 
ATOM      4  C5  KO1 d          -8.676  -0.312  70.475  0.00  0.00     0.088 C 
ATOM      5  C6  KO1 d          -8.484  -0.404  72.020  0.00  0.00     0.096 C 
ATOM      6  O6  KO1 d          -7.116   0.010  72.431  0.00  0.00    -0.336 OA
ATOM      7  H13 KO1 d          -6.032   0.883  69.915  0.00  0.00     0.045 H 
ATOM      8  H14 KO1 d          -6.608   2.544  70.285  0.00  0.00     0.045 H 
ATOM      9  H15 KO1 d          -8.864   1.846  70.429  0.00  0.00     0.087 H 
ATOM     10  H16 KO1 d          -9.751  -0.388  70.259  0.00  0.00     0.091 H 
ATOM     11  H18 KO1 d          -9.175   0.328  72.464  0.00  0.00     0.091 H 
ENDROOT
BRANCH   3  12
ATOM     12  O2  KO1 d          -8.316   1.050  68.569  0.00  0.00    -0.336 OA
BRANCH  12  13
ATOM     13  C2  KO1 d          -9.403   1.792  67.913  0.00  0.00     0.286 C 
ATOM     14  O6  KO1 d          -8.773   3.009  67.175  0.00  0.00    -0.334 OA
ATOM     15  C6  KO1 d          -7.650   2.532  66.284  0.00  0.00     0.096 C 
ATOM     16  C5  KO1 d          -8.236   1.654  65.176  0.00  0.00     0.090 C 
ATOM     17  H1  KO1 d          -6.926   1.930  66.854  0.00  0.00     0.091 H 
ATOM     18  C4  KO1 d          -8.913   0.417  65.824  0.00  0.00     0.093 C 
ATOM     19  H7  KO1 d          -7.435   1.328  64.495  0.00  0.00     0.091 H 
ATOM     20  C3  KO1 d          -9.997   0.773  66.888  0.00  0.00     0.127 C 
ATOM     21  H9  KO1 d          -8.132  -0.173  66.326  0.00  0.00     0.091 H 
ATOM     22  H11 KO1 d         -10.324  -0.151  67.387  0.00  0.00     0.096 H 
BRANCH  13  23
ATOM     23  C1  KO1 d         -10.541   2.337  68.806  0.00  0.00     0.241 C 
ATOM     24  OA1 KO1 d         -11.348   1.535  69.349  0.00  0.00    -0.644 OA
ATOM     25  O1B KO1 d         -10.627   3.554  68.978  0.00  0.00    -0.644 OA
ENDBRANCH  13  23
BRANCH  15  26
ATOM     26  C7  KO1 d          -6.971   3.856  65.822  0.00  0.00     0.083 C 
ATOM     27  H2  KO1 d          -7.747   4.618  65.666  0.00  0.00     0.090 H 
BRANCH  26  28
ATOM     28  C8  KO1 d          -5.990   4.432  66.865  0.00  0.00     0.043 C 
ATOM     29  H3  KO1 d          -6.447   5.245  67.447  0.00  0.00     0.078 H 
ATOM     30  H4  KO1 d          -5.064   4.793  66.394  0.00  0.00     0.078 H 
BRANCH  28  31
ATOM     31  O8  KO1 d          -5.754   3.261  67.678  0.00  0.00    -0.398 OA
ATOM     32  H5  KO1 d          -6.586   2.863  67.908  0.00  0.00     0.209 HD
ENDBRANCH  28  31
ENDBRANCH  26  28
BRANCH  26  33
ATOM     33  O7  KO1 d          -6.405   3.529  64.562  0.00  0.00    -0.391 OA
ATOM     34  H6  KO1 d          -5.800   2.804  64.665  0.00  0.00     0.210 HD
ENDBRANCH  26  33
ENDBRANCH  15  26
BRANCH  16  35
ATOM     35  O5  KO1 d          -9.221   2.403  64.442  0.00  0.00    -0.390 OA
ATOM     36  H8  KO1 d          -9.826   1.802  64.022  0.00  0.00     0.210 HD
ENDBRANCH  16  35
BRANCH  18  37
ATOM     37  O4  KO1 d          -9.490  -0.364  64.804  0.00  0.00    -0.390 OA
ATOM     38  H10 KO1 d          -8.833  -0.559  64.146  0.00  0.00     0.210 HD
ENDBRANCH  18  37
BRANCH  20  39
ATOM     39  O3  KO1 d         -11.113   1.470  66.372  0.00  0.00    -0.387 OA
ATOM     40  H12 KO1 d         -10.910   2.396  66.320  0.00  0.00     0.210 HD
ENDBRANCH  20  39
ENDBRANCH  12  13
ENDBRANCH   3  12
BRANCH   4  41
ATOM     41  O5  KO1 d          -8.006  -1.379  69.738  0.00  0.00    -0.390 OA
ATOM     42  H17 KO1 d          -7.503  -1.913  70.341  0.00  0.00     0.210 HD
ENDBRANCH   4  41
BRANCH   1  43
ATOM     43  C1  KO1 d          -4.905   1.099  72.114  0.00  0.00     0.239 C 
ATOM     44  O1A KO1 d          -4.381   1.657  73.116  0.00  0.00    -0.644 OA
ATOM     45  O1B KO1 d          -4.258   0.472  71.209  0.00  0.00    -0.644 OA
ENDBRANCH   1  43
BRANCH   1  46
ATOM     46  O2  KO1 d          -6.977   2.261  72.895  0.00  0.00    -0.343 OA
BRANCH  46  47
ATOM     47  C9  KO1 d          -7.935   3.214  73.225  0.00  0.00     0.038 C 
ATOM     48  H24 KO1 d          -7.385   4.165  73.289  0.00  0.00     0.080 H 
ATOM     49  H25 KO1 d          -8.293   2.930  74.226  0.00  0.00     0.080 H 
BRANCH  47  50
ATOM     50  C10 KO1 d          -9.102   3.509  72.484  0.00  0.00    -0.089 C 
ATOM     51  C11 KO1 d         -10.310   2.806  72.622  0.00  0.00    -0.123 C 
ATOM     52  H27 KO1 d         -11.173   3.083  72.020  0.00  0.00     0.066 H 
ATOM     53  H28 KO1 d         -10.383   1.983  73.332  0.00  0.00     0.066 H 
ATOM     54  H26 KO1 d          -9.063   4.327  71.765  0.00  0.00     0.078 H 
ENDBRANCH  47  50
ENDBRANCH  46  47
ENDBRANCH   1  46
BRANCH   5  55
ATOM     55  C7  KO1 d          -8.898  -1.789  72.589  0.00  0.00     0.083 C 
ATOM     56  H19 KO1 d          -9.428  -2.318  71.783  0.00  0.00     0.090 H 
BRANCH  55  57
ATOM     57  O7  KO1 d          -9.817  -1.643  73.695  0.00  0.00    -0.391 OA
ATOM     58  H20 KO1 d         -10.564  -2.215  73.562  0.00  0.00     0.210 HD
ENDBRANCH  55  57
BRANCH  55  59
ATOM     59  C8  KO1 d          -7.699  -2.688  73.012  0.00  0.00     0.043 C 
ATOM     60  H21 KO1 d          -8.087  -3.660  73.350  0.00  0.00     0.078 H 
ATOM     61  H22 KO1 d          -7.164  -2.200  73.841  0.00  0.00     0.078 H 
BRANCH  59  62
ATOM     62  O8  KO1 d          -6.768  -2.909  71.922  0.00  0.00    -0.398 OA
ATOM     63  H23 KO1 d          -5.885  -2.716  72.216  0.00  0.00     0.209 HD
ENDBRANCH  59  62
ENDBRANCH  55  59
ENDBRANCH   5  55
TORSDOF 19
ENDMDL
MODEL 5
REMARK VINA RESULT:      -5.0      1.985      6.736
REMARK  19 active torsions:
REMARK  status: ('A' for Active; 'I' for Inactive)
REMARK    1  A    between atoms: C2_4  and  C1_2 
REMARK    2  A    between atoms: O2_17  and  C2_4 
REMARK    3  A    between atoms: C6_6  and  C7_7 
REMARK    4  A    between atoms: C7_7  and  C8_8 
REMARK    5  A    between atoms: C7_7  and  O7_10 
REMARK    6  A    between atoms: C8_8  and  O8_9 
REMARK    7  A    between atoms: C5_11  and  O5_12 
REMARK    8  A    between atoms: C4_13  and  O4_14 
REMARK    9  A    between atoms: C3_15  and  O3_16 
REMARK   10  A    between atoms: C4_23  and  O2_17 
REMARK   11  A    between atoms: C2_21  and  C1_18 
REMARK   12  A    between atoms: C2_21  and  O2_32 
REMARK   13  A    between atoms: C5_24  and  O5_25 
REMARK   14  A    between atoms: C6_26  and  C7_28 
REMARK   15  A    between atoms: C7_28  and  O7_29 
REMARK   16  A    between atoms: C7_28  and  C8_30 
REMARK   17  A    between atoms: C8_30  and  O8_31 
REMARK   18  A    between atoms: O2_32  and  C9_33 
REMARK   19  A    between atoms: C9_33  and  C10_34 
ROOT
ATOM      1  C2  KO1 d          -9.249   3.961  67.230  0.00  0.00     0.259 C 
ATOM      2  C3  KO1 d          -9.366   2.941  68.406  0.00  0.00     0.024 C 
ATOM      3  C4  KO1 d          -8.594   1.610  68.219  0.00  0.00     0.075 C 
ATOM      4  C5  KO1 d          -8.796   0.904  66.853  0.00  0.00     0.088 C 
ATOM      5  C6  KO1 d          -8.512   1.953  65.734  0.00  0.00     0.096 C 
ATOM      6  O6  KO1 d          -9.245   3.225  65.972  0.00  0.00    -0.336 OA
ATOM      7  H13 KO1 d         -10.431   2.698  68.538  0.00  0.00     0.045 H 
ATOM      8  H14 KO1 d          -8.986   3.428  69.316  0.00  0.00     0.045 H 
ATOM      9  H15 KO1 d          -7.526   1.846  68.334  0.00  0.00     0.087 H 
ATOM     10  H16 KO1 d          -8.055   0.098  66.763  0.00  0.00     0.091 H 
ATOM     11  H18 KO1 d          -7.441   2.197  65.802  0.00  0.00     0.091 H 
ENDROOT
BRANCH   3  12
ATOM     12  O2  KO1 d          -8.962   0.586  69.196  0.00  0.00    -0.336 OA
BRANCH  12  13
ATOM     13  C2  KO1 d          -7.938   0.015  70.084  0.00  0.00     0.286 C 
ATOM     14  O6  KO1 d          -7.500   1.125  71.084  0.00  0.00    -0.334 OA
ATOM     15  C6  KO1 d          -8.721   1.712  71.752  0.00  0.00     0.096 C 
ATOM     16  C5  KO1 d          -9.377   0.634  72.618  0.00  0.00     0.090 C 
ATOM     17  H1  KO1 d          -9.455   2.047  71.004  0.00  0.00     0.091 H 
ATOM     18  C4  KO1 d          -9.828  -0.536  71.703  0.00  0.00     0.093 C 
ATOM     19  H7  KO1 d         -10.248   1.056  73.142  0.00  0.00     0.091 H 
ATOM     20  C3  KO1 d          -8.682  -1.139  70.833  0.00  0.00     0.127 C 
ATOM     21  H9  KO1 d         -10.602  -0.154  71.020  0.00  0.00     0.091 H 
ATOM     22  H11 KO1 d          -9.113  -1.861  70.126  0.00  0.00     0.096 H 
BRANCH  13  23
ATOM     23  C1  KO1 d          -6.655  -0.548  69.433  0.00  0.00     0.241 C 
ATOM     24  OA1 KO1 d          -5.579   0.105  69.504  0.00  0.00    -0.644 OA
ATOM     25  O1B KO1 d          -6.709  -1.640  68.865  0.00  0.00    -0.644 OA
ENDBRANCH  13  23
BRANCH  15  26
ATOM     26  C7  KO1 d          -8.155   2.949  72.511  0.00  0.00     0.083 C 
ATOM     27  H2  KO1 d          -7.992   3.764  71.791  0.00  0.00     0.090 H 
BRANCH  26  28
ATOM     28  C8  KO1 d          -9.117   3.496  73.586  0.00  0.00     0.043 C 
ATOM     29  H3  KO1 d          -8.581   3.789  74.500  0.00  0.00     0.078 H 
ATOM     30  H4  KO1 d          -9.901   2.767  73.838  0.00  0.00     0.078 H 
BRANCH  28  31
ATOM     31  O8  KO1 d          -9.659   4.643  72.894  0.00  0.00    -0.398 OA
ATOM     32  H5  KO1 d          -9.971   5.277  73.529  0.00  0.00     0.209 HD
ENDBRANCH  28  31
ENDBRANCH  26  28
BRANCH  26  33
ATOM     33  O7  KO1 d          -6.890   2.511  72.985  0.00  0.00    -0.391 OA
ATOM     34  H6  KO1 d          -6.413   2.097  72.274  0.00  0.00     0.210 HD
ENDBRANCH  26  33
ENDBRANCH  15  26
BRANCH  16  35
ATOM     35  O5  KO1 d          -8.424   0.144  73.578  0.00  0.00    -0.390 OA
ATOM     36  H8  KO1 d          -7.793  -0.415  73.139  0.00  0.00     0.210 HD
ENDBRANCH  16  35
BRANCH  18  37
ATOM     37  O4  KO1 d         -10.390  -1.545  72.509  0.00  0.00    -0.390 OA
ATOM     38  H10 KO1 d          -9.700  -2.116  72.826  0.00  0.00     0.210 HD
ENDBRANCH  18  37
BRANCH  20  39
ATOM     39  O3  KO1 d          -7.643  -1.744  71.577  0.00  0.00    -0.387 OA
ATOM     40  H12 KO1 d          -6.877  -1.182  71.563  0.00  0.00     0.210 HD
ENDBRANCH  20  39
ENDBRANCH  12  13
ENDBRANCH   3  12
BRANCH   4  41
ATOM     41  O5  KO1 d         -10.119   0.293  66.759  0.00  0.00    -0.390 OA
ATOM     42  H17 KO1 d         -10.720   0.902  66.346  0.00  0.00     0.210 HD
ENDBRANCH   4  41
BRANCH   1  43
ATOM     43  C1  KO1 d         -10.518   4.867  67.337  0.00  0.00     0.239 C 
ATOM     44  O1A KO1 d         -11.348   4.739  66.396  0.00  0.00    -0.644 OA
ATOM     45  O1B KO1 d         -10.646   5.675  68.316  0.00  0.00    -0.644 OA
ENDBRANCH   1  43
BRANCH   1  46
ATOM     46  O2  KO1 d          -8.024   4.730  67.215  0.00  0.00    -0.343 OA
BRANCH  46  47
ATOM     47  C9  KO1 d          -6.859   5.178  67.830  0.00  0.00     0.038 C 
ATOM     48  H24 KO1 d          -7.198   5.778  68.688  0.00  0.00     0.080 H 
ATOM     49  H25 KO1 d          -6.376   5.834  67.090  0.00  0.00     0.080 H 
BRANCH  47  50
ATOM     50  C10 KO1 d          -5.820   4.362  68.334  0.00  0.00    -0.089 C 
ATOM     51  C11 KO1 d          -5.324   3.232  67.665  0.00  0.00    -0.123 C 
ATOM     52  H27 KO1 d          -4.522   2.644  68.108  0.00  0.00     0.066 H 
ATOM     53  H28 KO1 d          -5.742   2.942  66.702  0.00  0.00     0.066 H 
ATOM     54  H26 KO1 d          -5.381   4.624  69.296  0.00  0.00     0.078 H 
ENDBRANCH  47  50
ENDBRANCH  46  47
ENDBRANCH   1  46
BRANCH   5  55
ATOM     55  C7  KO1 d          -8.735   1.378  64.309  0.00  0.00     0.083 C 
ATOM     56  H19 KO1 d          -9.261   0.419  64.433  0.00  0.00     0.090 H 
BRANCH  55  57
ATOM     57  O7  KO1 d          -7.476   1.106  63.655  0.00  0.00    -0.391 OA
ATOM     58  H20 KO1 d          -6.912   0.621  64.246  0.00  0.00     0.210 HD
ENDBRANCH  55  57
BRANCH  55  59
ATOM     59  C8  KO1 d          -9.625   2.271  63.394  0.00  0.00     0.043 C 
ATOM     60  H21 KO1 d          -9.764   1.761  62.429  0.00  0.00     0.078 H 
ATOM     61  H22 KO1 d          -9.114   3.231  63.231  0.00  0.00     0.078 H 
BRANCH  59  62
ATOM     62  O8  KO1 d         -10.928   2.528  63.979  0.00  0.00    -0.398 OA
ATOM     63  H23 KO1 d         -11.085   3.465  64.000  0.00  0.00     0.209 HD
ENDBRANCH  59  62
ENDBRANCH  55  59
ENDBRANCH   5  55
TORSDOF 19
ENDMDL
MODEL 6
REMARK VINA RESULT:      -4.9      2.150      4.899
REMARK  19 active torsions:
REMARK  status: ('A' for Active; 'I' for Inactive)
REMARK    1  A    between atoms: C2_4  and  C1_2 
REMARK    2  A    between atoms: O2_17  and  C2_4 
REMARK    3  A    between atoms: C6_6  and  C7_7 
REMARK    4  A    between atoms: C7_7  and  C8_8 
REMARK    5  A    between atoms: C7_7  and  O7_10 
REMARK    6  A    between atoms: C8_8  and  O8_9 
REMARK    7  A    between atoms: C5_11  and  O5_12 
REMARK    8  A    between atoms: C4_13  and  O4_14 
REMARK    9  A    between atoms: C3_15  and  O3_16 
REMARK   10  A    between atoms: C4_23  and  O2_17 
REMARK   11  A    between atoms: C2_21  and  C1_18 
REMARK   12  A    between atoms: C2_21  and  O2_32 
REMARK   13  A    between atoms: C5_24  and  O5_25 
REMARK   14  A    between atoms: C6_26  and  C7_28 
REMARK   15  A    between atoms: C7_28  and  O7_29 
REMARK   16  A    between atoms: C7_28  and  C8_30 
REMARK   17  A    between atoms: C8_30  and  O8_31 
REMARK   18  A    between atoms: O2_32  and  C9_33 
REMARK   19  A    between atoms: C9_33  and  C10_34 
ROOT
ATOM      1  C2  KO1 d          -8.325   2.378  72.285  0.00  0.00     0.259 C 
ATOM      2  C3  KO1 d          -8.763   2.957  70.903  0.00  0.00     0.024 C 
ATOM      3  C4  KO1 d          -8.235   2.198  69.659  0.00  0.00     0.075 C 
ATOM      4  C5  KO1 d          -6.718   1.875  69.666  0.00  0.00     0.088 C 
ATOM      5  C6  KO1 d          -6.395   1.162  71.016  0.00  0.00     0.096 C 
ATOM      6  O6  KO1 d          -6.951   1.906  72.178  0.00  0.00    -0.336 OA
ATOM      7  H13 KO1 d          -8.405   3.996  70.843  0.00  0.00     0.045 H 
ATOM      8  H14 KO1 d          -9.863   2.946  70.864  0.00  0.00     0.045 H 
ATOM      9  H15 KO1 d          -8.793   1.252  69.606  0.00  0.00     0.087 H 
ATOM     10  H16 KO1 d          -6.506   1.171  68.849  0.00  0.00     0.091 H 
ATOM     11  H18 KO1 d          -6.919   0.195  70.990  0.00  0.00     0.091 H 
ENDROOT
BRANCH   3  12
ATOM     12  O2  KO1 d          -8.426   2.933  68.409  0.00  0.00    -0.336 OA
BRANCH  12  13
ATOM     13  C2  KO1 d          -9.658   2.747  67.627  0.00  0.00     0.286 C 
ATOM     14  O6  KO1 d          -9.293   2.884  66.120  0.00  0.00    -0.334 OA
ATOM     15  C6  KO1 d          -8.142   1.960  65.795  0.00  0.00     0.096 C 
ATOM     16  C5  KO1 d          -8.608   0.512  65.961  0.00  0.00     0.090 C 
ATOM     17  H1  KO1 d          -7.297   2.131  66.478  0.00  0.00     0.091 H 
ATOM     18  C4  KO1 d          -9.020   0.287  67.441  0.00  0.00     0.093 C 
ATOM     19  H7  KO1 d          -7.792  -0.176  65.692  0.00  0.00     0.091 H 
ATOM     20  C3  KO1 d         -10.103   1.284  67.956  0.00  0.00     0.127 C 
ATOM     21  H9  KO1 d          -8.124   0.412  68.066  0.00  0.00     0.091 H 
ATOM     22  H11 KO1 d         -10.233   1.141  69.039  0.00  0.00     0.096 H 
BRANCH  13  23
ATOM     23  C1  KO1 d         -10.835   3.710  67.903  0.00  0.00     0.241 C 
ATOM     24  OA1 KO1 d         -11.258   4.461  66.983  0.00  0.00    -0.644 OA
ATOM     25  O1B KO1 d         -11.348   3.711  69.023  0.00  0.00    -0.644 OA
ENDBRANCH  13  23
BRANCH  15  26
ATOM     26  C7  KO1 d          -7.736   2.387  64.353  0.00  0.00     0.083 C 
ATOM     27  H2  KO1 d          -7.642   1.488  63.728  0.00  0.00     0.090 H 
BRANCH  26  28
ATOM     28  C8  KO1 d          -8.783   3.291  63.669  0.00  0.00     0.043 C 
ATOM     29  H3  KO1 d          -9.770   3.205  64.149  0.00  0.00     0.078 H 
ATOM     30  H4  KO1 d          -8.875   3.065  62.597  0.00  0.00     0.078 H 
BRANCH  28  31
ATOM     31  O8  KO1 d          -8.194   4.591  63.892  0.00  0.00    -0.398 OA
ATOM     32  H5  KO1 d          -8.605   5.000  64.645  0.00  0.00     0.209 HD
ENDBRANCH  28  31
ENDBRANCH  26  28
BRANCH  26  33
ATOM     33  O7  KO1 d          -6.446   2.957  64.515  0.00  0.00    -0.391 OA
ATOM     34  H6  KO1 d          -6.530   3.836  64.866  0.00  0.00     0.210 HD
ENDBRANCH  26  33
ENDBRANCH  15  26
BRANCH  16  35
ATOM     35  O5  KO1 d          -9.745   0.273  65.112  0.00  0.00    -0.390 OA
ATOM     36  H8  KO1 d         -10.309   1.038  65.118  0.00  0.00     0.210 HD
ENDBRANCH  16  35
BRANCH  18  37
ATOM     37  O4  KO1 d          -9.491  -1.033  67.580  0.00  0.00    -0.390 OA
ATOM     38  H10 KO1 d          -9.363  -1.321  68.476  0.00  0.00     0.210 HD
ENDBRANCH  18  37
BRANCH  20  39
ATOM     39  O3  KO1 d         -11.348   1.185  67.296  0.00  0.00    -0.387 OA
ATOM     40  H12 KO1 d         -11.809   0.415  67.607  0.00  0.00     0.210 HD
ENDBRANCH  20  39
ENDBRANCH  12  13
ENDBRANCH   3  12
BRANCH   4  41
ATOM     41  O5  KO1 d          -5.916   3.071  69.430  0.00  0.00    -0.390 OA
ATOM     42  H17 KO1 d          -6.464   3.751  69.057  0.00  0.00     0.210 HD
ENDBRANCH   4  41
BRANCH   1  43
ATOM     43  C1  KO1 d          -8.423   3.573  73.286  0.00  0.00     0.239 C 
ATOM     44  O1A KO1 d          -9.588   3.841  73.689  0.00  0.00    -0.644 OA
ATOM     45  O1B KO1 d          -7.371   4.212  73.625  0.00  0.00    -0.644 OA
ENDBRANCH   1  43
BRANCH   1  46
ATOM     46  O2  KO1 d          -9.081   1.226  72.725  0.00  0.00    -0.343 OA
BRANCH  46  47
ATOM     47  C9  KO1 d          -9.484  -0.097  72.575  0.00  0.00     0.038 C 
ATOM     48  H24 KO1 d         -10.391  -0.194  73.190  0.00  0.00     0.080 H 
ATOM     49  H25 KO1 d          -8.675  -0.697  73.016  0.00  0.00     0.080 H 
BRANCH  47  50
ATOM     50  C10 KO1 d          -9.795  -0.735  71.352  0.00  0.00    -0.089 C 
ATOM     51  C11 KO1 d         -10.659  -1.837  71.248  0.00  0.00    -0.123 C 
ATOM     52  H27 KO1 d         -10.857  -2.284  70.275  0.00  0.00     0.066 H 
ATOM     53  H28 KO1 d         -11.131  -2.246  72.141  0.00  0.00     0.066 H 
ATOM     54  H26 KO1 d          -9.339  -0.352  70.440  0.00  0.00     0.078 H 
ENDBRANCH  47  50
ENDBRANCH  46  47
ENDBRANCH   1  46
BRANCH   5  55
ATOM     55  C7  KO1 d          -4.885   0.833  71.168  0.00  0.00     0.083 C 
ATOM     56  H19 KO1 d          -4.424   1.687  71.687  0.00  0.00     0.090 H 
BRANCH  55  57
ATOM     57  O7  KO1 d          -4.248   0.709  69.877  0.00  0.00    -0.391 OA
ATOM     58  H20 KO1 d          -3.493   0.137  69.951  0.00  0.00     0.210 HD
ENDBRANCH  55  57
BRANCH  55  59
ATOM     59  C8  KO1 d          -4.592  -0.434  72.026  0.00  0.00     0.043 C 
ATOM     60  H21 KO1 d          -3.870  -0.170  72.812  0.00  0.00     0.078 H 
ATOM     61  H22 KO1 d          -4.160  -1.210  71.377  0.00  0.00     0.078 H 
BRANCH  59  62
ATOM     62  O8  KO1 d          -5.791  -0.962  72.650  0.00  0.00    -0.398 OA
ATOM     63  H23 KO1 d          -6.313  -1.415  71.998  0.00  0.00     0.209 HD
ENDBRANCH  59  62
ENDBRANCH  55  59
ENDBRANCH   5  55
TORSDOF 19
ENDMDL
MODEL 7
REMARK VINA RESULT:      -4.6      2.159      6.140
REMARK  19 active torsions:
REMARK  status: ('A' for Active; 'I' for Inactive)
REMARK    1  A    between atoms: C2_4  and  C1_2 
REMARK    2  A    between atoms: O2_17  and  C2_4 
REMARK    3  A    between atoms: C6_6  and  C7_7 
REMARK    4  A    between atoms: C7_7  and  C8_8 
REMARK    5  A    between atoms: C7_7  and  O7_10 
REMARK    6  A    between atoms: C8_8  and  O8_9 
REMARK    7  A    between atoms: C5_11  and  O5_12 
REMARK    8  A    between atoms: C4_13  and  O4_14 
REMARK    9  A    between atoms: C3_15  and  O3_16 
REMARK   10  A    between atoms: C4_23  and  O2_17 
REMARK   11  A    between atoms: C2_21  and  C1_18 
REMARK   12  A    between atoms: C2_21  and  O2_32 
REMARK   13  A    between atoms: C5_24  and  O5_25 
REMARK   14  A    between atoms: C6_26  and  C7_28 
REMARK   15  A    between atoms: C7_28  and  O7_29 
REMARK   16  A    between atoms: C7_28  and  C8_30 
REMARK   17  A    between atoms: C8_30  and  O8_31 
REMARK   18  A    between atoms: O2_32  and  C9_33 
REMARK   19  A    between atoms: C9_33  and  C10_34 
ROOT
ATOM      1  C2  KO1 d          -8.104   0.203  67.709  0.00  0.00     0.259 C 
ATOM      2  C3  KO1 d          -8.334   1.497  68.551  0.00  0.00     0.024 C 
ATOM      3  C4  KO1 d          -7.132   1.959  69.414  0.00  0.00     0.075 C 
ATOM      4  C5  KO1 d          -6.458   0.854  70.270  0.00  0.00     0.088 C 
ATOM      5  C6  KO1 d          -6.124  -0.338  69.321  0.00  0.00     0.096 C 
ATOM      6  O6  KO1 d          -7.294  -0.724  68.489  0.00  0.00    -0.336 OA
ATOM      7  H13 KO1 d          -9.184   1.314  69.226  0.00  0.00     0.045 H 
ATOM      8  H14 KO1 d          -8.586   2.313  67.857  0.00  0.00     0.045 H 
ATOM      9  H15 KO1 d          -6.383   2.366  68.719  0.00  0.00     0.087 H 
ATOM     10  H16 KO1 d          -5.513   1.249  70.669  0.00  0.00     0.091 H 
ATOM     11  H18 KO1 d          -5.355   0.026  68.623  0.00  0.00     0.091 H 
ENDROOT
BRANCH   3  12
ATOM     12  O2  KO1 d          -7.483   2.989  70.391  0.00  0.00    -0.336 OA
BRANCH  12  13
ATOM     13  C2  KO1 d          -8.579   3.928  70.109  0.00  0.00     0.286 C 
ATOM     14  O6  KO1 d          -9.922   3.186  70.373  0.00  0.00    -0.334 OA
ATOM     15  C6  KO1 d          -9.898   2.574  71.754  0.00  0.00     0.096 C 
ATOM     16  C5  KO1 d          -9.853   3.697  72.792  0.00  0.00     0.090 C 
ATOM     17  H1  KO1 d          -9.005   1.945  71.888  0.00  0.00     0.091 H 
ATOM     18  C4  KO1 d          -8.548   4.513  72.589  0.00  0.00     0.093 C 
ATOM     19  H7  KO1 d          -9.872   3.269  73.806  0.00  0.00     0.091 H 
ATOM     20  C3  KO1 d          -8.372   5.079  71.147  0.00  0.00     0.127 C 
ATOM     21  H9  KO1 d          -7.697   3.848  72.795  0.00  0.00     0.091 H 
ATOM     22  H11 KO1 d          -7.370   5.522  71.057  0.00  0.00     0.096 H 
BRANCH  13  23
ATOM     23  C1  KO1 d          -8.660   4.532  68.689  0.00  0.00     0.241 C 
ATOM     24  OA1 KO1 d          -9.742   4.474  68.045  0.00  0.00    -0.644 OA
ATOM     25  O1B KO1 d          -7.658   5.075  68.219  0.00  0.00    -0.644 OA
ENDBRANCH  13  23
BRANCH  15  26
ATOM     26  C7  KO1 d         -11.171   1.676  71.771  0.00  0.00     0.083 C 
ATOM     27  H2  KO1 d         -12.060   2.317  71.686  0.00  0.00     0.090 H 
BRANCH  26  28
ATOM     28  C8  KO1 d         -11.229   0.683  70.591  0.00  0.00     0.043 C 
ATOM     29  H3  KO1 d         -11.044   1.183  69.629  0.00  0.00     0.078 H 
ATOM     30  H4  KO1 d         -12.194   0.157  70.552  0.00  0.00     0.078 H 
BRANCH  28  31
ATOM     31  O8  KO1 d         -10.149  -0.209  70.946  0.00  0.00    -0.398 OA
ATOM     32  H5  KO1 d         -10.235  -0.462  71.857  0.00  0.00     0.209 HD
ENDBRANCH  28  31
ENDBRANCH  26  28
BRANCH  26  33
ATOM     33  O7  KO1 d         -11.162   1.093  73.065  0.00  0.00    -0.391 OA
ATOM     34  H6  KO1 d         -10.937   1.756  73.708  0.00  0.00     0.210 HD
ENDBRANCH  26  33
ENDBRANCH  15  26
BRANCH  16  35
ATOM     35  O5  KO1 d         -10.987   4.564  72.610  0.00  0.00    -0.390 OA
ATOM     36  H8  KO1 d         -11.721   4.233  73.114  0.00  0.00     0.210 HD
ENDBRANCH  16  35
BRANCH  18  37
ATOM     37  O4  KO1 d          -8.533   5.573  73.517  0.00  0.00    -0.390 OA
ATOM     38  H10 KO1 d          -9.394   5.660  73.911  0.00  0.00     0.210 HD
ENDBRANCH  18  37
BRANCH  20  39
ATOM     39  O3  KO1 d          -9.357   6.018  70.765  0.00  0.00    -0.387 OA
ATOM     40  H12 KO1 d         -10.069   5.568  70.325  0.00  0.00     0.210 HD
ENDBRANCH  20  39
ENDBRANCH  12  13
ENDBRANCH   3  12
BRANCH   4  41
ATOM     41  O5  KO1 d          -7.291   0.480  71.409  0.00  0.00    -0.390 OA
ATOM     42  H17 KO1 d          -8.064   0.024  71.099  0.00  0.00     0.210 HD
ENDBRANCH   4  41
BRANCH   1  43
ATOM     43  C1  KO1 d          -9.528  -0.386  67.453  0.00  0.00     0.239 C 
ATOM     44  O1A KO1 d         -10.244   0.272  66.649  0.00  0.00    -0.644 OA
ATOM     45  O1B KO1 d          -9.899  -1.448  68.056  0.00  0.00    -0.644 OA
ENDBRANCH   1  43
BRANCH   1  46
ATOM     46  O2  KO1 d          -7.362   0.403  66.483  0.00  0.00    -0.343 OA
BRANCH  46  47
ATOM     47  C9  KO1 d          -7.099   1.123  65.321  0.00  0.00     0.038 C 
ATOM     48  H24 KO1 d          -6.103   0.790  64.995  0.00  0.00     0.080 H 
ATOM     49  H25 KO1 d          -7.049   2.175  65.639  0.00  0.00     0.080 H 
BRANCH  47  50
ATOM     50  C10 KO1 d          -7.891   1.127  64.150  0.00  0.00    -0.089 C 
ATOM     51  C11 KO1 d          -8.958   2.015  63.936  0.00  0.00    -0.123 C 
ATOM     52  H27 KO1 d          -9.530   1.966  63.011  0.00  0.00     0.066 H 
ATOM     53  H28 KO1 d          -9.214   2.753  64.696  0.00  0.00     0.066 H 
ATOM     54  H26 KO1 d          -7.662   0.401  63.371  0.00  0.00     0.078 H 
ENDBRANCH  47  50
ENDBRANCH  46  47
ENDBRANCH   1  46
BRANCH   5  55
ATOM     55  C7  KO1 d          -5.490  -1.538  70.076  0.00  0.00     0.083 C 
ATOM     56  H19 KO1 d          -4.980  -2.155  69.320  0.00  0.00     0.090 H 
BRANCH  55  57
ATOM     57  O7  KO1 d          -6.506  -2.357  70.696  0.00  0.00    -0.391 OA
ATOM     58  H20 KO1 d          -6.911  -2.910  70.038  0.00  0.00     0.210 HD
ENDBRANCH  55  57
BRANCH  55  59
ATOM     59  C8  KO1 d          -4.419  -1.133  71.132  0.00  0.00     0.043 C 
ATOM     60  H21 KO1 d          -4.130  -0.086  70.959  0.00  0.00     0.078 H 
ATOM     61  H22 KO1 d          -3.538  -1.780  71.011  0.00  0.00     0.078 H 
BRANCH  59  62
ATOM     62  O8  KO1 d          -4.912  -1.264  72.490  0.00  0.00    -0.398 OA
ATOM     63  H23 KO1 d          -4.258  -1.702  73.022  0.00  0.00     0.209 HD
ENDBRANCH  59  62
ENDBRANCH  55  59
ENDBRANCH   5  55
TORSDOF 19
ENDMDL
MODEL 8
REMARK VINA RESULT:      -4.3      2.517      7.214
REMARK  19 active torsions:
REMARK  status: ('A' for Active; 'I' for Inactive)
REMARK    1  A    between atoms: C2_4  and  C1_2 
REMARK    2  A    between atoms: O2_17  and  C2_4 
REMARK    3  A    between atoms: C6_6  and  C7_7 
REMARK    4  A    between atoms: C7_7  and  C8_8 
REMARK    5  A    between atoms: C7_7  and  O7_10 
REMARK    6  A    between atoms: C8_8  and  O8_9 
REMARK    7  A    between atoms: C5_11  and  O5_12 
REMARK    8  A    between atoms: C4_13  and  O4_14 
REMARK    9  A    between atoms: C3_15  and  O3_16 
REMARK   10  A    between atoms: C4_23  and  O2_17 
REMARK   11  A    between atoms: C2_21  and  C1_18 
REMARK   12  A    between atoms: C2_21  and  O2_32 
REMARK   13  A    between atoms: C5_24  and  O5_25 
REMARK   14  A    between atoms: C6_26  and  C7_28 
REMARK   15  A    between atoms: C7_28  and  O7_29 
REMARK   16  A    between atoms: C7_28  and  C8_30 
REMARK   17  A    between atoms: C8_30  and  O8_31 
REMARK   18  A    between atoms: O2_32  and  C9_33 
REMARK   19  A    between atoms: C9_33  and  C10_34 
ROOT
ATOM      1  C2  KO1 d          -7.053   3.799  68.647  0.00  0.00     0.259 C 
ATOM      2  C3  KO1 d          -7.165   2.397  69.324  0.00  0.00     0.024 C 
ATOM      3  C4  KO1 d          -8.378   2.203  70.269  0.00  0.00     0.075 C 
ATOM      4  C5  KO1 d          -8.611   3.336  71.302  0.00  0.00     0.088 C 
ATOM      5  C6  KO1 d          -8.637   4.687  70.522  0.00  0.00     0.096 C 
ATOM      6  O6  KO1 d          -7.475   4.815  69.603  0.00  0.00    -0.336 OA
ATOM      7  H13 KO1 d          -6.249   2.232  69.912  0.00  0.00     0.045 H 
ATOM      8  H14 KO1 d          -7.232   1.641  68.528  0.00  0.00     0.045 H 
ATOM      9  H15 KO1 d          -9.269   2.129  69.627  0.00  0.00     0.087 H 
ATOM     10  H16 KO1 d          -9.597   3.190  71.766  0.00  0.00     0.091 H 
ATOM     11  H18 KO1 d          -9.533   4.660  69.884  0.00  0.00     0.091 H 
ENDROOT
BRANCH   3  12
ATOM     12  O2  KO1 d          -8.284   0.997  71.092  0.00  0.00    -0.336 OA
BRANCH  12  13
ATOM     13  C2  KO1 d          -8.698  -0.302  70.543  0.00  0.00     0.286 C 
ATOM     14  O6  KO1 d          -7.505  -1.290  70.705  0.00  0.00    -0.334 OA
ATOM     15  C6  KO1 d          -7.037  -1.283  72.141  0.00  0.00     0.096 C 
ATOM     16  C5  KO1 d          -8.148  -1.852  73.027  0.00  0.00     0.090 C 
ATOM     17  H1  KO1 d          -6.818  -0.259  72.477  0.00  0.00     0.091 H 
ATOM     18  C4  KO1 d          -9.397  -0.938  72.910  0.00  0.00     0.093 C 
ATOM     19  H7  KO1 d          -7.808  -1.888  74.073  0.00  0.00     0.091 H 
ATOM     20  C3  KO1 d          -9.898  -0.734  71.447  0.00  0.00     0.127 C 
ATOM     21  H9  KO1 d          -9.134   0.050  73.315  0.00  0.00     0.091 H 
ATOM     22  H11 KO1 d         -10.693   0.025  71.445  0.00  0.00     0.096 H 
BRANCH  13  23
ATOM     23  C1  KO1 d          -9.135  -0.350  69.061  0.00  0.00     0.241 C 
ATOM     24  OA1 KO1 d         -10.358  -0.268  68.767  0.00  0.00    -0.644 OA
ATOM     25  O1B KO1 d          -8.268  -0.456  68.192  0.00  0.00    -0.644 OA
ENDBRANCH  13  23
BRANCH  15  26
ATOM     26  C7  KO1 d          -5.714  -2.104  72.091  0.00  0.00     0.083 C 
ATOM     27  H2  KO1 d          -5.958  -3.165  71.937  0.00  0.00     0.090 H 
BRANCH  26  28
ATOM     28  C8  KO1 d          -4.787  -1.692  70.927  0.00  0.00     0.043 C 
ATOM     29  H3  KO1 d          -3.755  -2.035  71.089  0.00  0.00     0.078 H 
ATOM     30  H4  KO1 d          -4.793  -0.604  70.770  0.00  0.00     0.078 H 
BRANCH  28  31
ATOM     31  O8  KO1 d          -5.416  -2.393  69.831  0.00  0.00    -0.398 OA
ATOM     32  H5  KO1 d          -5.882  -3.151  70.166  0.00  0.00     0.209 HD
ENDBRANCH  28  31
ENDBRANCH  26  28
BRANCH  26  33
ATOM     33  O7  KO1 d          -5.167  -1.954  73.393  0.00  0.00    -0.391 OA
ATOM     34  H6  KO1 d          -4.894  -1.053  73.518  0.00  0.00     0.210 HD
ENDBRANCH  26  33
ENDBRANCH  15  26
BRANCH  16  35
ATOM     35  O5  KO1 d          -8.486  -3.177  72.580  0.00  0.00    -0.390 OA
ATOM     36  H8  KO1 d          -8.019  -3.367  71.775  0.00  0.00     0.210 HD
ENDBRANCH  16  35
BRANCH  18  37
ATOM     37  O4  KO1 d         -10.431  -1.490  73.691  0.00  0.00    -0.390 OA
ATOM     38  H10 KO1 d         -10.275  -1.291  74.607  0.00  0.00     0.210 HD
ENDBRANCH  18  37
BRANCH  20  39
ATOM     39  O3  KO1 d         -10.350  -1.916  70.816  0.00  0.00    -0.387 OA
ATOM     40  H12 KO1 d          -9.679  -2.231  70.221  0.00  0.00     0.210 HD
ENDBRANCH  20  39
ENDBRANCH  12  13
ENDBRANCH   3  12
BRANCH   4  41
ATOM     41  O5  KO1 d          -7.616   3.297  72.370  0.00  0.00    -0.390 OA
ATOM     42  H17 KO1 d          -7.669   4.095  72.881  0.00  0.00     0.210 HD
ENDBRANCH   4  41
BRANCH   1  43
ATOM     43  C1  KO1 d          -5.542   3.969  68.289  0.00  0.00     0.239 C 
ATOM     44  O1A KO1 d          -5.077   3.102  67.500  0.00  0.00    -0.644 OA
ATOM     45  O1B KO1 d          -4.866   4.922  68.803  0.00  0.00    -0.644 OA
ENDBRANCH   1  43
BRANCH   1  46
ATOM     46  O2  KO1 d          -7.915   3.988  67.501  0.00  0.00    -0.343 OA
BRANCH  46  47
ATOM     47  C9  KO1 d          -8.135   4.437  66.202  0.00  0.00     0.038 C 
ATOM     48  H24 KO1 d          -7.242   5.026  65.946  0.00  0.00     0.080 H 
ATOM     49  H25 KO1 d          -9.007   5.104  66.271  0.00  0.00     0.080 H 
BRANCH  47  50
ATOM     50  C10 KO1 d          -8.379   3.623  65.073  0.00  0.00    -0.089 C 
ATOM     51  C11 KO1 d          -7.970   2.282  64.977  0.00  0.00    -0.123 C 
ATOM     52  H27 KO1 d          -8.189   1.709  64.078  0.00  0.00     0.066 H 
ATOM     53  H28 KO1 d          -7.433   1.816  65.803  0.00  0.00     0.066 H 
ATOM     54  H26 KO1 d          -8.913   4.058  64.229  0.00  0.00     0.078 H 
ENDBRANCH  47  50
ENDBRANCH  46  47
ENDBRANCH   1  46
BRANCH   5  55
ATOM     55  C7  KO1 d          -8.811   5.912  71.461  0.00  0.00     0.083 C 
ATOM     56  H19 KO1 d          -8.790   6.807  70.821  0.00  0.00     0.090 H 
BRANCH  55  57
ATOM     57  O7  KO1 d          -7.710   6.013  72.392  0.00  0.00    -0.391 OA
ATOM     58  H20 KO1 d          -6.911   5.724  71.967  0.00  0.00     0.210 HD
ENDBRANCH  55  57
BRANCH  55  59
ATOM     59  C8  KO1 d         -10.162   5.935  72.235  0.00  0.00     0.043 C 
ATOM     60  H21 KO1 d         -10.178   6.816  72.893  0.00  0.00     0.078 H 
ATOM     61  H22 KO1 d         -10.239   5.022  72.843  0.00  0.00     0.078 H 
BRANCH  59  62
ATOM     62  O8  KO1 d         -11.304   5.999  71.342  0.00  0.00    -0.398 OA
ATOM     63  H23 KO1 d         -11.153   5.430  70.596  0.00  0.00     0.209 HD
ENDBRANCH  59  62
ENDBRANCH  55  59
ENDBRANCH   5  55
TORSDOF 19
ENDMDL
MODEL 9
REMARK VINA RESULT:      -4.2      1.822      6.640
REMARK  19 active torsions:
REMARK  status: ('A' for Active; 'I' for Inactive)
REMARK    1  A    between atoms: C2_4  and  C1_2 
REMARK    2  A    between atoms: O2_17  and  C2_4 
REMARK    3  A    between atoms: C6_6  and  C7_7 
REMARK    4  A    between atoms: C7_7  and  C8_8 
REMARK    5  A    between atoms: C7_7  and  O7_10 
REMARK    6  A    between atoms: C8_8  and  O8_9 
REMARK    7  A    between atoms: C5_11  and  O5_12 
REMARK    8  A    between atoms: C4_13  and  O4_14 
REMARK    9  A    between atoms: C3_15  and  O3_16 
REMARK   10  A    between atoms: C4_23  and  O2_17 
REMARK   11  A    between atoms: C2_21  and  C1_18 
REMARK   12  A    between atoms: C2_21  and  O2_32 
REMARK   13  A    between atoms: C5_24  and  O5_25 
REMARK   14  A    between atoms: C6_26  and  C7_28 
REMARK   15  A    between atoms: C7_28  and  O7_29 
REMARK   16  A    between atoms: C7_28  and  C8_30 
REMARK   17  A    between atoms: C8_30  and  O8_31 
REMARK   18  A    between atoms: O2_32  and  C9_33 
REMARK   19  A    between atoms: C9_33  and  C10_34 
ROOT
ATOM      1  C2  KO1 d          -8.137   4.386  69.451  0.00  0.00     0.259 C 
ATOM      2  C3  KO1 d          -8.857   3.157  70.088  0.00  0.00     0.024 C 
ATOM      3  C4  KO1 d          -9.247   2.024  69.105  0.00  0.00     0.075 C 
ATOM      4  C5  KO1 d          -9.972   2.480  67.812  0.00  0.00     0.088 C 
ATOM      5  C6  KO1 d          -9.109   3.602  67.159  0.00  0.00     0.096 C 
ATOM      6  O6  KO1 d          -8.728   4.648  68.145  0.00  0.00    -0.336 OA
ATOM      7  H13 KO1 d          -9.777   3.517  70.571  0.00  0.00     0.045 H 
ATOM      8  H14 KO1 d          -8.187   2.729  70.849  0.00  0.00     0.045 H 
ATOM      9  H15 KO1 d          -8.314   1.517  68.821  0.00  0.00     0.087 H 
ATOM     10  H16 KO1 d         -10.013   1.630  67.115  0.00  0.00     0.091 H 
ATOM     11  H18 KO1 d          -8.171   3.126  66.837  0.00  0.00     0.091 H 
ENDROOT
BRANCH   3  12
ATOM     12  O2  KO1 d         -10.162   1.042  69.688  0.00  0.00    -0.336 OA
BRANCH  12  13
ATOM     13  C2  KO1 d          -9.959  -0.392  69.437  0.00  0.00     0.286 C 
ATOM     14  O6  KO1 d          -8.476  -0.729  69.768  0.00  0.00    -0.334 OA
ATOM     15  C6  KO1 d          -8.145  -0.235  71.157  0.00  0.00     0.096 C 
ATOM     16  C5  KO1 d          -8.970  -1.026  72.174  0.00  0.00     0.090 C 
ATOM     17  H1  KO1 d          -8.397   0.831  71.263  0.00  0.00     0.091 H 
ATOM     18  C4  KO1 d         -10.477  -0.769  71.903  0.00  0.00     0.093 C 
ATOM     19  H7  KO1 d          -8.713  -0.703  73.194  0.00  0.00     0.091 H 
ATOM     20  C3  KO1 d         -10.924  -1.097  70.445  0.00  0.00     0.127 C 
ATOM     21  H9  KO1 d         -10.677   0.297  72.084  0.00  0.00     0.091 H 
ATOM     22  H11 KO1 d         -11.962  -0.761  70.306  0.00  0.00     0.096 H 
BRANCH  13  23
ATOM     23  C1  KO1 d         -10.242  -0.919  68.012  0.00  0.00     0.241 C 
ATOM     24  OA1 KO1 d         -10.851  -0.189  67.183  0.00  0.00    -0.644 OA
ATOM     25  O1B KO1 d          -9.849  -2.047  67.710  0.00  0.00    -0.644 OA
ENDBRANCH  13  23
BRANCH  15  26
ATOM     26  C7  KO1 d          -6.600  -0.412  71.242  0.00  0.00     0.083 C 
ATOM     27  H2  KO1 d          -6.351  -0.919  72.185  0.00  0.00     0.090 H 
BRANCH  26  28
ATOM     28  C8  KO1 d          -6.025  -1.284  70.107  0.00  0.00     0.043 C 
ATOM     29  H3  KO1 d          -4.950  -1.104  69.960  0.00  0.00     0.078 H 
ATOM     30  H4  KO1 d          -6.557  -1.119  69.159  0.00  0.00     0.078 H 
BRANCH  28  31
ATOM     31  O8  KO1 d          -6.276  -2.605  70.637  0.00  0.00    -0.398 OA
ATOM     32  H5  KO1 d          -6.675  -2.529  71.496  0.00  0.00     0.209 HD
ENDBRANCH  28  31
ENDBRANCH  26  28
BRANCH  26  33
ATOM     33  O7  KO1 d          -6.105   0.917  71.305  0.00  0.00    -0.391 OA
ATOM     34  H6  KO1 d          -6.774   1.486  71.671  0.00  0.00     0.210 HD
ENDBRANCH  26  33
ENDBRANCH  15  26
BRANCH  16  35
ATOM     35  O5  KO1 d          -8.695  -2.431  72.026  0.00  0.00    -0.390 OA
ATOM     36  H8  KO1 d          -8.448  -2.795  72.868  0.00  0.00     0.210 HD
ENDBRANCH  16  35
BRANCH  18  37
ATOM     37  O4  KO1 d         -11.233  -1.535  72.812  0.00  0.00    -0.390 OA
ATOM     38  H10 KO1 d         -12.068  -1.108  72.965  0.00  0.00     0.210 HD
ENDBRANCH  18  37
BRANCH  20  39
ATOM     39  O3  KO1 d         -10.799  -2.459  70.090  0.00  0.00    -0.387 OA
ATOM     40  H12 KO1 d          -9.884  -2.710  70.119  0.00  0.00     0.210 HD
ENDBRANCH  20  39
ENDBRANCH  12  13
ENDBRANCH   3  12
BRANCH   4  41
ATOM     41  O5  KO1 d         -11.348   2.885  68.086  0.00  0.00    -0.390 OA
ATOM     42  H17 KO1 d         -11.360   3.484  68.822  0.00  0.00     0.210 HD
ENDBRANCH   4  41
BRANCH   1  43
ATOM     43  C1  KO1 d          -8.402   5.577  70.428  0.00  0.00     0.239 C 
ATOM     44  O1A KO1 d          -7.382   6.018  71.024  0.00  0.00    -0.644 OA
ATOM     45  O1B KO1 d          -9.589   6.018  70.590  0.00  0.00    -0.644 OA
ENDBRANCH   1  43
BRANCH   1  46
ATOM     46  O2  KO1 d          -6.727   4.193  69.188  0.00  0.00    -0.343 OA
BRANCH  46  47
ATOM     47  C9  KO1 d          -5.684   3.840  68.339  0.00  0.00     0.038 C 
ATOM     48  H24 KO1 d          -4.775   3.901  68.956  0.00  0.00     0.080 H 
ATOM     49  H25 KO1 d          -5.658   4.627  67.570  0.00  0.00     0.080 H 
BRANCH  47  50
ATOM     50  C10 KO1 d          -5.568   2.624  67.627  0.00  0.00    -0.089 C 
ATOM     51  C11 KO1 d          -6.262   2.349  66.438  0.00  0.00    -0.123 C 
ATOM     52  H27 KO1 d          -6.129   1.391  65.938  0.00  0.00     0.066 H 
ATOM     53  H28 KO1 d          -6.934   3.095  66.015  0.00  0.00     0.066 H 
ATOM     54  H26 KO1 d          -4.904   1.857  68.024  0.00  0.00     0.078 H 
ENDBRANCH  47  50
ENDBRANCH  46  47
ENDBRANCH   1  46
BRANCH   5  55
ATOM     55  C7  KO1 d          -9.761   4.183  65.875  0.00  0.00     0.083 C 
ATOM     56  H19 KO1 d         -10.031   5.227  66.099  0.00  0.00     0.090 H 
BRANCH  55  57
ATOM     57  O7  KO1 d         -10.979   3.478  65.546  0.00  0.00    -0.391 OA
ATOM     58  H20 KO1 d         -10.854   2.994  64.738  0.00  0.00     0.210 HD
ENDBRANCH  55  57
BRANCH  55  59
ATOM     59  C8  KO1 d          -8.816   4.213  64.637  0.00  0.00     0.043 C 
ATOM     60  H21 KO1 d          -7.790   4.413  64.980  0.00  0.00     0.078 H 
ATOM     61  H22 KO1 d          -9.140   5.020  63.962  0.00  0.00     0.078 H 
BRANCH  59  62
ATOM     62  O8  KO1 d          -8.830   2.960  63.907  0.00  0.00    -0.398 OA
ATOM     63  H23 KO1 d          -7.944   2.738  63.644  0.00  0.00     0.209 HD
ENDBRANCH  59  62
ENDBRANCH  55  59
ENDBRANCH   5  55
TORSDOF 19
ENDMDL
MODEL 10
REMARK VINA RESULT:      -3.9      1.787      6.956
REMARK  19 active torsions:
REMARK  status: ('A' for Active; 'I' for Inactive)
REMARK    1  A    between atoms: C2_4  and  C1_2 
REMARK    2  A    between atoms: O2_17  and  C2_4 
REMARK    3  A    between atoms: C6_6  and  C7_7 
REMARK    4  A    between atoms: C7_7  and  C8_8 
REMARK    5  A    between atoms: C7_7  and  O7_10 
REMARK    6  A    between atoms: C8_8  and  O8_9 
REMARK    7  A    between atoms: C5_11  and  O5_12 
REMARK    8  A    between atoms: C4_13  and  O4_14 
REMARK    9  A    between atoms: C3_15  and  O3_16 
REMARK   10  A    between atoms: C4_23  and  O2_17 
REMARK   11  A    between atoms: C2_21  and  C1_18 
REMARK   12  A    between atoms: C2_21  and  O2_32 
REMARK   13  A    between atoms: C5_24  and  O5_25 
REMARK   14  A    between atoms: C6_26  and  C7_28 
REMARK   15  A    between atoms: C7_28  and  O7_29 
REMARK   16  A    between atoms: C7_28  and  C8_30 
REMARK   17  A    between atoms: C8_30  and  O8_31 
REMARK   18  A    between atoms: O2_32  and  C9_33 
REMARK   19  A    between atoms: C9_33  and  C10_34 
ROOT
ATOM      1  C2  KO1 d          -9.051   3.442  67.642  0.00  0.00     0.259 C 
ATOM      2  C3  KO1 d          -9.060   2.211  68.601  0.00  0.00     0.024 C 
ATOM      3  C4  KO1 d          -7.866   1.235  68.452  0.00  0.00     0.075 C 
ATOM      4  C5  KO1 d          -7.533   0.801  67.000  0.00  0.00     0.088 C 
ATOM      5  C6  KO1 d          -7.391   2.097  66.143  0.00  0.00     0.096 C 
ATOM      6  O6  KO1 d          -8.540   3.019  66.344  0.00  0.00    -0.336 OA
ATOM      7  H13 KO1 d          -9.985   1.645  68.416  0.00  0.00     0.045 H 
ATOM      8  H14 KO1 d          -9.062   2.588  69.635  0.00  0.00     0.045 H 
ATOM      9  H15 KO1 d          -6.987   1.744  68.874  0.00  0.00     0.087 H 
ATOM     10  H16 KO1 d          -6.562   0.285  67.003  0.00  0.00     0.091 H 
ATOM     11  H18 KO1 d          -6.502   2.624  66.521  0.00  0.00     0.091 H 
ENDROOT
BRANCH   3  12
ATOM     12  O2  KO1 d          -8.063  -0.033  69.155  0.00  0.00    -0.336 OA
BRANCH  12  13
ATOM     13  C2  KO1 d          -8.165  -0.052  70.622  0.00  0.00     0.286 C 
ATOM     14  O6  KO1 d          -7.599  -1.413  71.122  0.00  0.00    -0.334 OA
ATOM     15  C6  KO1 d          -6.223  -1.632  70.539  0.00  0.00     0.096 C 
ATOM     16  C5  KO1 d          -5.272  -0.574  71.104  0.00  0.00     0.090 C 
ATOM     17  H1  KO1 d          -6.240  -1.529  69.444  0.00  0.00     0.091 H 
ATOM     18  C4  KO1 d          -5.774   0.830  70.675  0.00  0.00     0.093 C 
ATOM     19  H7  KO1 d          -4.255  -0.742  70.718  0.00  0.00     0.091 H 
ATOM     20  C3  KO1 d          -7.249   1.129  71.084  0.00  0.00     0.127 C 
ATOM     21  H9  KO1 d          -5.712   0.892  69.578  0.00  0.00     0.091 H 
ATOM     22  H11 KO1 d          -7.562   2.079  70.627  0.00  0.00     0.096 H 
BRANCH  13  23
ATOM     23  C1  KO1 d          -9.568   0.119  71.247  0.00  0.00     0.241 C 
ATOM     24  OA1 KO1 d          -9.998   1.274  71.514  0.00  0.00    -0.644 OA
ATOM     25  O1B KO1 d         -10.247  -0.886  71.460  0.00  0.00    -0.644 OA
ENDBRANCH  13  23
BRANCH  15  26
ATOM     26  C7  KO1 d          -5.905  -3.110  70.914  0.00  0.00     0.083 C 
ATOM     27  H2  KO1 d          -6.288  -3.769  70.122  0.00  0.00     0.090 H 
BRANCH  26  28
ATOM     28  C8  KO1 d          -4.393  -3.395  71.033  0.00  0.00     0.043 C 
ATOM     29  H3  KO1 d          -3.790  -2.561  70.644  0.00  0.00     0.078 H 
ATOM     30  H4  KO1 d          -4.114  -4.323  70.514  0.00  0.00     0.078 H 
BRANCH  28  31
ATOM     31  O8  KO1 d          -4.262  -3.525  72.466  0.00  0.00    -0.398 OA
ATOM     32  H5  KO1 d          -4.965  -4.070  72.799  0.00  0.00     0.209 HD
ENDBRANCH  28  31
ENDBRANCH  26  28
BRANCH  26  33
ATOM     33  O7  KO1 d          -6.667  -3.336  72.091  0.00  0.00    -0.391 OA
ATOM     34  H6  KO1 d          -7.146  -2.546  72.313  0.00  0.00     0.210 HD
ENDBRANCH  26  33
ENDBRANCH  15  26
BRANCH  16  35
ATOM     35  O5  KO1 d          -5.265  -0.655  72.541  0.00  0.00    -0.390 OA
ATOM     36  H8  KO1 d          -4.758   0.066  72.895  0.00  0.00     0.210 HD
ENDBRANCH  16  35
BRANCH  18  37
ATOM     37  O4  KO1 d          -4.923   1.802  71.235  0.00  0.00    -0.390 OA
ATOM     38  H10 KO1 d          -4.898   1.693  72.179  0.00  0.00     0.210 HD
ENDBRANCH  18  37
BRANCH  20  39
ATOM     39  O3  KO1 d          -7.471   1.162  72.480  0.00  0.00    -0.387 OA
ATOM     40  H12 KO1 d          -6.787   1.674  72.896  0.00  0.00     0.210 HD
ENDBRANCH  20  39
ENDBRANCH  12  13
ENDBRANCH   3  12
BRANCH   4  41
ATOM     41  O5  KO1 d          -8.524  -0.137  66.483  0.00  0.00    -0.390 OA
ATOM     42  H17 KO1 d          -8.139  -1.003  66.424  0.00  0.00     0.210 HD
ENDBRANCH   4  41
BRANCH   1  43
ATOM     43  C1  KO1 d         -10.543   3.893  67.529  0.00  0.00     0.239 C 
ATOM     44  O1A KO1 d         -11.340   3.008  67.112  0.00  0.00    -0.644 OA
ATOM     45  O1B KO1 d         -10.875   5.088  67.829  0.00  0.00    -0.644 OA
ENDBRANCH   1  43
BRANCH   1  46
ATOM     46  O2  KO1 d          -8.179   4.522  68.050  0.00  0.00    -0.343 OA
BRANCH  46  47
ATOM     47  C9  KO1 d          -6.989   4.984  68.604  0.00  0.00     0.038 C 
ATOM     48  H24 KO1 d          -6.923   4.500  69.590  0.00  0.00     0.080 H 
ATOM     49  H25 KO1 d          -7.133   6.067  68.735  0.00  0.00     0.080 H 
BRANCH  47  50
ATOM     50  C10 KO1 d          -5.702   4.848  68.036  0.00  0.00    -0.089 C 
ATOM     51  C11 KO1 d          -4.999   3.633  67.986  0.00  0.00    -0.123 C 
ATOM     52  H27 KO1 d          -4.008   3.595  67.535  0.00  0.00     0.066 H 
ATOM     53  H28 KO1 d          -5.443   2.728  68.399  0.00  0.00     0.066 H 
ATOM     54  H26 KO1 d          -5.228   5.734  67.615  0.00  0.00     0.078 H 
ENDBRANCH  47  50
ENDBRANCH  46  47
ENDBRANCH   1  46
BRANCH   5  55
ATOM     55  C7  KO1 d          -7.109   1.791  64.647  0.00  0.00     0.083 C 
ATOM     56  H19 KO1 d          -6.524   0.859  64.617  0.00  0.00     0.090 H 
BRANCH  55  57
ATOM     57  O7  KO1 d          -6.304   2.832  64.047  0.00  0.00    -0.391 OA
ATOM     58  H20 KO1 d          -6.420   2.815  63.104  0.00  0.00     0.210 HD
ENDBRANCH  55  57
BRANCH  55  59
ATOM     59  C8  KO1 d          -8.390   1.553  63.793  0.00  0.00     0.043 C 
ATOM     60  H21 KO1 d          -9.066   0.888  64.348  0.00  0.00     0.078 H 
ATOM     61  H22 KO1 d          -8.100   1.074  62.845  0.00  0.00     0.078 H 
BRANCH  59  62
ATOM     62  O8  KO1 d          -9.088   2.790  63.497  0.00  0.00    -0.398 OA
ATOM     63  H23 KO1 d          -9.209   3.283  64.299  0.00  0.00     0.209 HD
ENDBRANCH  59  62
ENDBRANCH  55  59
ENDBRANCH   5  55
TORSDOF 19
ENDMDL
