MODEL 1
REMARK VINA RESULT:      -9.0      0.000      0.000
REMARK  4 active torsions:
REMARK  status: ('A' for Active; 'I' for Inactive)
REMARK    1  A    between atoms: C9_9  and  O20_18 
REMARK    2  A    between atoms: C10_10  and  O19_17 
REMARK    3  A    between atoms: C15_15  and  O23_21 
REMARK    4  A    between atoms: C16_16  and  O22_20 
ROOT
ATOM      1  C1  REF d          36.132  -4.436  11.353  0.00  0.00     0.042 A 
ATOM      2  C2  REF d          36.585  -4.053  10.106  0.00  0.00     0.030 A 
ATOM      3  C3  REF d          36.905  -5.050   9.224  0.00  0.00     0.030 A 
ATOM      4  C4  REF d          36.778  -6.385   9.594  0.00  0.00     0.126 A 
ATOM      5  O5  REF d          36.340  -6.719  10.780  0.00  0.00    -0.281 OA
ATOM      6  C6  REF d          36.016  -5.797  11.650  0.00  0.00     0.232 A 
ATOM      7  C7  REF d          37.353  -4.664   7.977  0.00  0.00     0.042 A 
ATOM      8  C8  REF d          37.706  -5.629   7.042  0.00  0.00    -0.033 A 
ATOM      9  C9  REF d          37.597  -6.966   7.392  0.00  0.00     0.102 A 
ATOM     10  C10 REF d          37.141  -7.335   8.645  0.00  0.00     0.134 A 
ATOM     11  C11 REF d          36.725  -2.718   9.727  0.00  0.00     0.126 A 
ATOM     12  O12 REF d          37.143  -2.382   8.542  0.00  0.00    -0.281 OA
ATOM     13  C13 REF d          37.452  -3.307   7.676  0.00  0.00     0.232 A 
ATOM     14  C14 REF d          35.807  -3.448  12.274  0.00  0.00    -0.033 A 
ATOM     15  C15 REF d          35.958  -2.111  11.917  0.00  0.00     0.102 A 
ATOM     16  C16 REF d          36.412  -1.740  10.655  0.00  0.00     0.134 A 
ATOM     17  O21 REF d          37.887  -2.967   6.460  0.00  0.00    -0.163 OA
ATOM     18  O24 REF d          35.553  -6.158  12.873  0.00  0.00    -0.163 OA
ATOM     19  H1  REF d          38.059  -5.342   6.058  0.00  0.00     0.089 H 
ATOM     20  H2  REF d          35.441  -3.715  13.259  0.00  0.00     0.089 H 
ENDROOT
BRANCH   9  21
ATOM     21  O20 REF d          37.944  -7.967   6.505  0.00  0.00    -0.358 OA
ATOM     22  H4  REF d          37.189  -8.519   6.341  0.00  0.00     0.217 HD
ENDBRANCH   9  21
BRANCH  10  23
ATOM     23  O19 REF d          37.080  -8.639   8.879  0.00  0.00    -0.356 OA
ATOM     24  H3  REF d          36.758  -8.787   9.760  0.00  0.00     0.218 HD
ENDBRANCH  10  23
BRANCH  16  25
ATOM     25  O22 REF d          36.564  -0.398  10.341  0.00  0.00    -0.356 OA
ATOM     26  H5  REF d          36.879  -0.317   9.448  0.00  0.00     0.218 HD
ENDBRANCH  16  25
BRANCH  15  27
ATOM     27  O23 REF d          35.667  -1.134  12.819  0.00  0.00    -0.358 OA
ATOM     28  H6  REF d          35.371  -1.531  13.629  0.00  0.00     0.217 HD
ENDBRANCH  15  27
TORSDOF 4
ENDMDL
