MODEL 1
REMARK VINA RESULT:      -8.9      0.000      0.000
REMARK  4 active torsions:
REMARK  status: ('A' for Active; 'I' for Inactive)
REMARK    1  A    between atoms: C9_9  and  O20_18 
REMARK    2  A    between atoms: C10_10  and  O19_17 
REMARK    3  A    between atoms: C15_15  and  O23_21 
REMARK    4  A    between atoms: C16_16  and  O22_20 
ROOT
ATOM      1  C1  REF d          37.319  -4.819   7.933  0.00  0.00     0.042 A 
ATOM      2  C2  REF d          36.882  -5.174   9.194  0.00  0.00     0.030 A 
ATOM      3  C3  REF d          36.578  -4.156  10.058  0.00  0.00     0.030 A 
ATOM      4  C4  REF d          36.719  -2.830   9.662  0.00  0.00     0.126 A 
ATOM      5  O5  REF d          37.130  -2.523   8.459  0.00  0.00    -0.281 OA
ATOM      6  C6  REF d          37.423  -3.466   7.600  0.00  0.00     0.232 A 
ATOM      7  C7  REF d          36.137  -4.513  11.317  0.00  0.00     0.042 A 
ATOM      8  C8  REF d          35.824  -3.527  12.243  0.00  0.00    -0.033 A 
ATOM      9  C9  REF d          35.967  -2.198  11.874  0.00  0.00     0.102 A 
ATOM     10  C10 REF d          36.406  -1.858  10.607  0.00  0.00     0.134 A 
ATOM     11  C11 REF d          36.746  -6.500   9.605  0.00  0.00     0.126 A 
ATOM     12  O12 REF d          36.321  -6.808  10.795  0.00  0.00    -0.281 OA
ATOM     13  C13 REF d          36.019  -5.863  11.641  0.00  0.00     0.232 A 
ATOM     14  C14 REF d          37.644  -5.828   7.035  0.00  0.00    -0.033 A 
ATOM     15  C15 REF d          37.530  -7.157   7.436  0.00  0.00     0.102 A 
ATOM     16  C16 REF d          37.085  -7.498   8.709  0.00  0.00     0.134 A 
ATOM     17  O21 REF d          35.587  -6.175  12.867  0.00  0.00    -0.163 OA
ATOM     18  O24 REF d          37.837  -3.133   6.352  0.00  0.00    -0.163 OA
ATOM     19  H1  REF d          35.476  -3.791  13.236  0.00  0.00     0.089 H 
ATOM     20  H2  REF d          37.983  -5.584   6.034  0.00  0.00     0.089 H 
ENDROOT
BRANCH   9  21
ATOM     21  O20 REF d          35.681  -1.177  12.759  0.00  0.00    -0.358 OA
ATOM     22  H4  REF d          35.255  -0.466  12.294  0.00  0.00     0.217 HD
ENDBRANCH   9  21
BRANCH  10  23
ATOM     23  O19 REF d          36.511  -0.559  10.359  0.00  0.00    -0.356 OA
ATOM     24  H3  REF d          37.375  -0.374  10.011  0.00  0.00     0.218 HD
ENDBRANCH  10  23
BRANCH  16  25
ATOM     25  O22 REF d          36.999  -8.832   9.077  0.00  0.00    -0.356 OA
ATOM     26  H5  REF d          37.173  -8.914  10.008  0.00  0.00     0.218 HD
ENDBRANCH  16  25
BRANCH  15  27
ATOM     27  O23 REF d          37.870  -8.154   6.574  0.00  0.00    -0.358 OA
ATOM     28  H6  REF d          38.215  -7.775   5.774  0.00  0.00     0.217 HD
ENDBRANCH  15  27
TORSDOF 4
ENDMDL
MODEL 2
REMARK VINA RESULT:      -8.7      1.348      4.519
REMARK  4 active torsions:
REMARK  status: ('A' for Active; 'I' for Inactive)
REMARK    1  A    between atoms: C9_9  and  O20_18 
REMARK    2  A    between atoms: C10_10  and  O19_17 
REMARK    3  A    between atoms: C15_15  and  O23_21 
REMARK    4  A    between atoms: C16_16  and  O22_20 
ROOT
ATOM      1  C1  REF d          37.376  -4.170   7.887  0.00  0.00     0.042 A 
ATOM      2  C2  REF d          36.910  -3.729   9.110  0.00  0.00     0.030 A 
ATOM      3  C3  REF d          36.643  -4.682  10.057  0.00  0.00     0.030 A 
ATOM      4  C4  REF d          36.834  -6.030   9.773  0.00  0.00     0.126 A 
ATOM      5  O5  REF d          37.283  -6.419   8.608  0.00  0.00    -0.281 OA
ATOM      6  C6  REF d          37.557  -5.540   7.678  0.00  0.00     0.232 A 
ATOM      7  C7  REF d          36.181  -4.238  11.280  0.00  0.00     0.042 A 
ATOM      8  C8  REF d          35.881  -5.155  12.278  0.00  0.00    -0.033 A 
ATOM      9  C9  REF d          36.054  -6.506  12.014  0.00  0.00     0.102 A 
ATOM     10  C10 REF d          36.522  -6.933  10.784  0.00  0.00     0.134 A 
ATOM     11  C11 REF d          36.706  -2.381   9.403  0.00  0.00     0.126 A 
ATOM     12  O12 REF d          36.277  -1.990  10.567  0.00  0.00    -0.281 OA
ATOM     13  C13 REF d          36.017  -2.871  11.492  0.00  0.00     0.232 A 
ATOM     14  C14 REF d          37.649  -3.229   6.902  0.00  0.00    -0.033 A 
ATOM     15  C15 REF d          37.433  -1.881   7.173  0.00  0.00     0.102 A 
ATOM     16  C16 REF d          36.967  -1.451   8.411  0.00  0.00     0.134 A 
ATOM     17  O21 REF d          35.571  -2.474  12.687  0.00  0.00    -0.163 OA
ATOM     18  O24 REF d          38.033  -5.957   6.478  0.00  0.00    -0.163 OA
ATOM     19  H1  REF d          35.518  -4.823  13.244  0.00  0.00     0.089 H 
ATOM     20  H2  REF d          38.023  -3.542   5.934  0.00  0.00     0.089 H 
ENDROOT
BRANCH   9  21
ATOM     21  O20 REF d          35.760  -7.462  12.966  0.00  0.00    -0.358 OA
ATOM     22  H4  REF d          36.253  -8.254  12.782  0.00  0.00     0.217 HD
ENDBRANCH   9  21
BRANCH  10  23
ATOM     23  O19 REF d          36.647  -8.245  10.635  0.00  0.00    -0.356 OA
ATOM     24  H3  REF d          37.069  -8.611  11.402  0.00  0.00     0.218 HD
ENDBRANCH  10  23
BRANCH  16  25
ATOM     25  O22 REF d          36.751  -0.101   8.639  0.00  0.00    -0.356 OA
ATOM     26  H5  REF d          36.971   0.391   7.856  0.00  0.00     0.218 HD
ENDBRANCH  16  25
BRANCH  15  27
ATOM     27  O23 REF d          37.672  -0.952   6.207  0.00  0.00    -0.358 OA
ATOM     28  H6  REF d          37.374  -1.284   5.369  0.00  0.00     0.217 HD
ENDBRANCH  15  27
TORSDOF 4
ENDMDL
MODEL 3
REMARK VINA RESULT:      -8.6      1.334      4.149
REMARK  4 active torsions:
REMARK  status: ('A' for Active; 'I' for Inactive)
REMARK    1  A    between atoms: C9_9  and  O20_18 
REMARK    2  A    between atoms: C10_10  and  O19_17 
REMARK    3  A    between atoms: C15_15  and  O23_21 
REMARK    4  A    between atoms: C16_16  and  O22_20 
ROOT
ATOM      1  C1  REF d          36.164  -4.582  11.401  0.00  0.00     0.042 A 
ATOM      2  C2  REF d          36.605  -4.966  10.150  0.00  0.00     0.030 A 
ATOM      3  C3  REF d          36.839  -3.972   9.238  0.00  0.00     0.030 A 
ATOM      4  C4  REF d          36.627  -2.640   9.578  0.00  0.00     0.126 A 
ATOM      5  O5  REF d          36.215  -2.304  10.773  0.00  0.00    -0.281 OA
ATOM      6  C6  REF d          35.987  -3.222  11.676  0.00  0.00     0.232 A 
ATOM      7  C7  REF d          37.283  -4.359   7.989  0.00  0.00     0.042 A 
ATOM      8  C8  REF d          37.527  -3.399   7.016  0.00  0.00    -0.033 A 
ATOM      9  C9  REF d          37.313  -2.065   7.330  0.00  0.00     0.102 A 
ATOM     10  C10 REF d          36.872  -1.694   8.587  0.00  0.00     0.134 A 
ATOM     11  C11 REF d          36.812  -6.299   9.795  0.00  0.00     0.126 A 
ATOM     12  O12 REF d          37.238  -6.635   8.613  0.00  0.00    -0.281 OA
ATOM     13  C13 REF d          37.475  -5.713   7.722  0.00  0.00     0.232 A 
ATOM     14  C14 REF d          35.909  -5.566  12.347  0.00  0.00    -0.033 A 
ATOM     15  C15 REF d          36.094  -6.903  12.003  0.00  0.00     0.102 A 
ATOM     16  C16 REF d          36.542  -7.275  10.739  0.00  0.00     0.134 A 
ATOM     17  O21 REF d          37.908  -6.054   6.505  0.00  0.00    -0.163 OA
ATOM     18  O24 REF d          35.571  -2.859  12.915  0.00  0.00    -0.163 OA
ATOM     19  H1  REF d          37.877  -3.686   6.031  0.00  0.00     0.089 H 
ATOM     20  H2  REF d          35.570  -5.298  13.341  0.00  0.00     0.089 H 
ENDROOT
BRANCH   9  21
ATOM     21  O20 REF d          37.529  -1.069   6.396  0.00  0.00    -0.358 OA
ATOM     22  H4  REF d          38.293  -0.563   6.645  0.00  0.00     0.217 HD
ENDBRANCH   9  21
BRANCH  10  23
ATOM     23  O19 REF d          36.696  -0.394   8.780  0.00  0.00    -0.356 OA
ATOM     24  H3  REF d          35.964  -0.093   8.255  0.00  0.00     0.218 HD
ENDBRANCH  10  23
BRANCH  16  25
ATOM     25  O22 REF d          36.700  -8.616  10.428  0.00  0.00    -0.356 OA
ATOM     26  H5  REF d          37.258  -8.699   9.662  0.00  0.00     0.218 HD
ENDBRANCH  16  25
BRANCH  15  27
ATOM     27  O23 REF d          35.823  -7.878  12.912  0.00  0.00    -0.358 OA
ATOM     28  H6  REF d          34.945  -8.210  12.767  0.00  0.00     0.217 HD
ENDBRANCH  15  27
TORSDOF 4
ENDMDL
MODEL 4
REMARK VINA RESULT:      -8.5      1.299      3.218
REMARK  4 active torsions:
REMARK  status: ('A' for Active; 'I' for Inactive)
REMARK    1  A    between atoms: C9_9  and  O20_18 
REMARK    2  A    between atoms: C10_10  and  O19_17 
REMARK    3  A    between atoms: C15_15  and  O23_21 
REMARK    4  A    between atoms: C16_16  and  O22_20 
ROOT
ATOM      1  C1  REF d          37.017  -6.292   9.114  0.00  0.00     0.042 A 
ATOM      2  C2  REF d          36.650  -5.261   9.957  0.00  0.00     0.030 A 
ATOM      3  C3  REF d          36.797  -3.985   9.483  0.00  0.00     0.030 A 
ATOM      4  C4  REF d          37.305  -3.762   8.207  0.00  0.00     0.126 A 
ATOM      5  O5  REF d          37.639  -4.757   7.428  0.00  0.00    -0.281 OA
ATOM      6  C6  REF d          37.506  -5.992   7.839  0.00  0.00     0.232 A 
ATOM      7  C7  REF d          36.426  -2.956  10.326  0.00  0.00     0.042 A 
ATOM      8  C8  REF d          36.563  -1.639   9.908  0.00  0.00    -0.033 A 
ATOM      9  C9  REF d          37.076  -1.392   8.643  0.00  0.00     0.102 A 
ATOM     10  C10 REF d          37.439  -2.435   7.810  0.00  0.00     0.134 A 
ATOM     11  C11 REF d          36.149  -5.473  11.241  0.00  0.00     0.126 A 
ATOM     12  O12 REF d          35.799  -4.485  12.012  0.00  0.00    -0.281 OA
ATOM     13  C13 REF d          35.923  -3.257  11.590  0.00  0.00     0.232 A 
ATOM     14  C14 REF d          36.887  -7.598   9.568  0.00  0.00    -0.033 A 
ATOM     15  C15 REF d          36.406  -7.826  10.854  0.00  0.00     0.102 A 
ATOM     16  C16 REF d          36.036  -6.777  11.690  0.00  0.00     0.134 A 
ATOM     17  O21 REF d          35.571  -2.240  12.380  0.00  0.00    -0.163 OA
ATOM     18  O24 REF d          37.845  -7.016   7.016  0.00  0.00    -0.163 OA
ATOM     19  H1  REF d          36.275  -0.820  10.558  0.00  0.00     0.089 H 
ATOM     20  H2  REF d          37.159  -8.431   8.928  0.00  0.00     0.089 H 
ENDROOT
BRANCH   9  21
ATOM     21  O20 REF d          37.244  -0.101   8.182  0.00  0.00    -0.358 OA
ATOM     22  H4  REF d          38.151   0.028   7.928  0.00  0.00     0.217 HD
ENDBRANCH   9  21
BRANCH  10  23
ATOM     23  O19 REF d          37.922  -2.088   6.625  0.00  0.00    -0.356 OA
ATOM     24  H3  REF d          38.083  -1.153   6.611  0.00  0.00     0.218 HD
ENDBRANCH  10  23
BRANCH  16  25
ATOM     25  O22 REF d          35.574  -7.042  12.970  0.00  0.00    -0.356 OA
ATOM     26  H5  REF d          36.254  -6.833  13.601  0.00  0.00     0.218 HD
ENDBRANCH  16  25
BRANCH  15  27
ATOM     27  O23 REF d          36.299  -9.101  11.320  0.00  0.00    -0.358 OA
ATOM     28  H6  REF d          37.123  -9.363  11.711  0.00  0.00     0.217 HD
ENDBRANCH  15  27
TORSDOF 4
ENDMDL
MODEL 5
REMARK VINA RESULT:      -8.5      1.305      5.200
REMARK  4 active torsions:
REMARK  status: ('A' for Active; 'I' for Inactive)
REMARK    1  A    between atoms: C9_9  and  O20_18 
REMARK    2  A    between atoms: C10_10  and  O19_17 
REMARK    3  A    between atoms: C15_15  and  O23_21 
REMARK    4  A    between atoms: C16_16  and  O22_20 
ROOT
ATOM      1  C1  REF d          36.455  -2.875  10.296  0.00  0.00     0.042 A 
ATOM      2  C2  REF d          36.791  -3.921   9.460  0.00  0.00     0.030 A 
ATOM      3  C3  REF d          36.647  -5.189   9.956  0.00  0.00     0.030 A 
ATOM      4  C4  REF d          36.187  -5.389  11.253  0.00  0.00     0.126 A 
ATOM      5  O5  REF d          35.870  -4.380  12.022  0.00  0.00    -0.281 OA
ATOM      6  C6  REF d          35.986  -3.153  11.584  0.00  0.00     0.232 A 
ATOM      7  C7  REF d          36.979  -6.233   9.115  0.00  0.00     0.042 A 
ATOM      8  C8  REF d          36.866  -7.542   9.564  0.00  0.00    -0.033 A 
ATOM      9  C9  REF d          36.419  -7.766  10.858  0.00  0.00     0.102 A 
ATOM     10  C10 REF d          36.086  -6.708  11.685  0.00  0.00     0.134 A 
ATOM     11  C11 REF d          37.262  -3.732   8.161  0.00  0.00     0.126 A 
ATOM     12  O12 REF d          37.561  -4.735   7.387  0.00  0.00    -0.281 OA
ATOM     13  C13 REF d          37.431  -5.955   7.827  0.00  0.00     0.232 A 
ATOM     14  C14 REF d          36.599  -1.576   9.826  0.00  0.00    -0.033 A 
ATOM     15  C15 REF d          37.084  -1.370   8.538  0.00  0.00     0.102 A 
ATOM     16  C16 REF d          37.415  -2.434   7.705  0.00  0.00     0.134 A 
ATOM     17  O21 REF d          37.743  -6.987   7.039  0.00  0.00    -0.163 OA
ATOM     18  O24 REF d          35.643  -2.115  12.388  0.00  0.00    -0.163 OA
ATOM     19  H1  REF d          37.123  -8.373   8.917  0.00  0.00     0.089 H 
ATOM     20  H2  REF d          36.336  -0.733  10.455  0.00  0.00     0.089 H 
ENDROOT
BRANCH   9  21
ATOM     21  O20 REF d          36.299  -9.047  11.360  0.00  0.00    -0.358 OA
ATOM     22  H4  REF d          36.988  -9.203  11.996  0.00  0.00     0.217 HD
ENDBRANCH   9  21
BRANCH  10  23
ATOM     23  O19 REF d          35.674  -7.032  12.903  0.00  0.00    -0.356 OA
ATOM     24  H3  REF d          35.965  -6.372  13.521  0.00  0.00     0.218 HD
ENDBRANCH  10  23
BRANCH  16  25
ATOM     25  O22 REF d          37.910  -2.190   6.433  0.00  0.00    -0.356 OA
ATOM     26  H5  REF d          37.191  -2.174   5.812  0.00  0.00     0.218 HD
ENDBRANCH  16  25
BRANCH  15  27
ATOM     27  O23 REF d          37.254  -0.101   8.075  0.00  0.00    -0.358 OA
ATOM     28  H6  REF d          37.126   0.514   8.786  0.00  0.00     0.217 HD
ENDBRANCH  15  27
TORSDOF 4
ENDMDL
MODEL 6
REMARK VINA RESULT:      -7.2      0.949      4.998
REMARK  4 active torsions:
REMARK  status: ('A' for Active; 'I' for Inactive)
REMARK    1  A    between atoms: C9_9  and  O20_18 
REMARK    2  A    between atoms: C10_10  and  O19_17 
REMARK    3  A    between atoms: C15_15  and  O23_21 
REMARK    4  A    between atoms: C16_16  and  O22_20 
ROOT
ATOM      1  C1  REF d          36.978  -2.842   8.919  0.00  0.00     0.042 A 
ATOM      2  C2  REF d          36.741  -3.911   9.761  0.00  0.00     0.030 A 
ATOM      3  C3  REF d          36.914  -5.166   9.241  0.00  0.00     0.030 A 
ATOM      4  C4  REF d          37.306  -5.331   7.916  0.00  0.00     0.126 A 
ATOM      5  O5  REF d          37.530  -4.300   7.143  0.00  0.00    -0.281 OA
ATOM      6  C6  REF d          37.384  -3.084   7.603  0.00  0.00     0.232 A 
ATOM      7  C7  REF d          36.680  -6.233  10.085  0.00  0.00     0.042 A 
ATOM      8  C8  REF d          36.827  -7.530   9.614  0.00  0.00    -0.033 A 
ATOM      9  C9  REF d          37.207  -7.720   8.294  0.00  0.00     0.102 A 
ATOM     10  C10 REF d          37.442  -6.640   7.462  0.00  0.00     0.134 A 
ATOM     11  C11 REF d          36.338  -3.757  11.087  0.00  0.00     0.126 A 
ATOM     12  O12 REF d          36.132  -4.781  11.864  0.00  0.00    -0.281 OA
ATOM     13  C13 REF d          36.292  -5.989  11.401  0.00  0.00     0.232 A 
ATOM     14  C14 REF d          36.803  -1.556   9.414  0.00  0.00    -0.033 A 
ATOM     15  C15 REF d          36.384  -1.386  10.731  0.00  0.00     0.102 A 
ATOM     16  C16 REF d          36.152  -2.473  11.568  0.00  0.00     0.134 A 
ATOM     17  O21 REF d          36.075  -7.043  12.193  0.00  0.00    -0.163 OA
ATOM     18  O24 REF d          37.631  -2.024   6.794  0.00  0.00    -0.163 OA
ATOM     19  H1  REF d          36.647  -8.379  10.265  0.00  0.00     0.089 H 
ATOM     20  H2  REF d          36.989  -0.695   8.782  0.00  0.00     0.089 H 
ENDROOT
BRANCH   9  21
ATOM     21  O20 REF d          37.357  -8.989   7.769  0.00  0.00    -0.358 OA
ATOM     22  H4  REF d          36.502  -9.348   7.562  0.00  0.00     0.217 HD
ENDBRANCH   9  21
BRANCH  10  23
ATOM     23  O19 REF d          37.797  -6.931   6.218  0.00  0.00    -0.356 OA
ATOM     24  H3  REF d          38.152  -7.811   6.190  0.00  0.00     0.218 HD
ENDBRANCH  10  23
BRANCH  16  25
ATOM     25  O22 REF d          35.722  -2.265  12.869  0.00  0.00    -0.356 OA
ATOM     26  H5  REF d          36.469  -2.053  13.418  0.00  0.00     0.218 HD
ENDBRANCH  16  25
BRANCH  15  27
ATOM     27  O23 REF d          36.184  -0.132  11.219  0.00  0.00    -0.358 OA
ATOM     28  H6  REF d          36.623   0.498  10.660  0.00  0.00     0.217 HD
ENDBRANCH  15  27
TORSDOF 4
ENDMDL
