MODEL 1
REMARK VINA RESULT:      -6.4      0.000      0.000
REMARK  16 active torsions:
REMARK  status: ('A' for Active; 'I' for Inactive)
REMARK    1  A    between atoms: CBC_6  and  CAS_7 
REMARK    2  A    between atoms: CAS_7  and  CBG_8 
REMARK    3  A    between atoms: CBG_8  and  NAW_9 
REMARK    4  A    between atoms: CBG_8  and  P1_21 
REMARK       I    between atoms: NAW_9  and  CBB_10 
REMARK    5  A    between atoms: CBB_10  and  CBF_12 
REMARK    6  A    between atoms: CBF_12  and  CAR_13 
REMARK    7  A    between atoms: CBF_12  and  NAU_17 
REMARK    8  A    between atoms: CAR_13  and  CAZ_14 
REMARK       I    between atoms: NAU_17  and  CAX_18 
REMARK    9  A    between atoms: CAX_18  and  CAA_19 
REMARK   10  A    between atoms: P1_21  and  CAT_24 
REMARK   11  A    between atoms: CAT_24  and  CBD_25 
REMARK   12  A    between atoms: CBD_25  and  CAB_26 
REMARK   13  A    between atoms: CBD_25  and  CBA_27 
REMARK       I    between atoms: CBA_27  and  N_29 
REMARK   14  A    between atoms: N_29  and  CA_30 
REMARK   15  A    between atoms: CA_30  and  CB_31 
REMARK   16  A    between atoms: CA_30  and  C_32 
REMARK       I    between atoms: C_32  and  NAD_34 
ROOT
ATOM      1  CBG RX4 d          27.141   0.425  44.669  0.00  0.00     0.091 C 
ATOM      2  H8  RX4 d          26.041   0.418  44.666  0.00  0.00     0.089 H 
ENDROOT
BRANCH   1   3
ATOM      3  CAS RX4 d          27.631   0.561  46.161  0.00  0.00    -0.013 C 
ATOM      4  H6  RX4 d          27.862  -0.429  46.581  0.00  0.00     0.044 H 
ATOM      5  H7  RX4 d          28.524   1.200  46.215  0.00  0.00     0.044 H 
BRANCH   3   6
ATOM      6  CBC RX4 d          26.453   1.212  46.931  0.00  0.00    -0.056 A 
ATOM      7  CAP RX4 d          25.156   0.931  46.433  0.00  0.00    -0.077 A 
ATOM      8  CAN RX4 d          23.998   1.472  46.975  0.00  0.00    -0.082 A 
ATOM      9  H1  RX4 d          25.063   0.262  45.585  0.00  0.00     0.084 H 
ATOM     10  CAM RX4 d          24.220   2.361  48.052  0.00  0.00    -0.083 A 
ATOM     11  H2  RX4 d          23.008   1.233  46.605  0.00  0.00     0.083 H 
ATOM     12  CAO RX4 d          25.503   2.686  48.550  0.00  0.00    -0.082 A 
ATOM     13  H3  RX4 d          23.358   2.820  48.522  0.00  0.00     0.083 H 
ATOM     14  CAQ RX4 d          26.649   2.107  47.981  0.00  0.00    -0.077 A 
ATOM     15  H4  RX4 d          25.602   3.384  49.375  0.00  0.00     0.083 H 
ATOM     16  H5  RX4 d          27.643   2.346  48.343  0.00  0.00     0.084 H 
ENDBRANCH   3   6
ENDBRANCH   1   3
BRANCH   1  17
ATOM     17  NAW RX4 d          27.645  -0.806  44.066  0.00  0.00    -0.345 N 
ATOM     18  CBB RX4 d          27.041  -1.950  44.397  0.00  0.00     0.241 C 
ATOM     19  OAI RX4 d          26.043  -1.986  45.140  0.00  0.00    -0.271 OA
ATOM     20  H9  RX4 d          28.414  -0.792  43.428  0.00  0.00     0.163 HD
BRANCH  18  21
ATOM     21  CBF RX4 d          27.703  -3.288  44.029  0.00  0.00     0.098 C 
ATOM     22  H10 RX4 d          27.335  -4.083  44.694  0.00  0.00     0.088 H 
BRANCH  21  23
ATOM     23  CAR RX4 d          29.192  -3.227  44.157  0.00  0.00     0.043 C 
ATOM     24  H11 RX4 d          29.486  -2.367  44.777  0.00  0.00     0.052 H 
ATOM     25  H12 RX4 d          29.658  -3.140  43.164  0.00  0.00     0.052 H 
BRANCH  23  26
ATOM     26  CAZ RX4 d          29.619  -4.550  44.836  0.00  0.00     0.175 C 
ATOM     27  OAK RX4 d          30.753  -5.046  44.577  0.00  0.00    -0.648 OA
ATOM     28  OAG RX4 d          28.828  -5.011  45.654  0.00  0.00    -0.648 OA
ENDBRANCH  23  26
ENDBRANCH  21  23
BRANCH  21  29
ATOM     29  NAU RX4 d          27.243  -3.555  42.621  0.00  0.00    -0.348 N 
ATOM     30  CAX RX4 d          27.034  -4.796  42.144  0.00  0.00     0.214 C 
ATOM     31  OAE RX4 d          27.245  -5.842  42.803  0.00  0.00    -0.274 OA
ATOM     32  H13 RX4 d          27.085  -2.776  42.014  0.00  0.00     0.163 HD
BRANCH  30  33
ATOM     33  CAA RX4 d          26.507  -4.875  40.681  0.00  0.00    -0.003 C 
ATOM     34  H14 RX4 d          26.098  -3.898  40.385  0.00  0.00     0.040 H 
ATOM     35  H15 RX4 d          25.718  -5.638  40.616  0.00  0.00     0.040 H 
ATOM     36  H16 RX4 d          27.335  -5.145  40.008  0.00  0.00     0.040 H 
ENDBRANCH  30  33
ENDBRANCH  21  29
ENDBRANCH  18  21
ENDBRANCH   1  17
BRANCH   1  37
ATOM     37  P1  RX4 d          27.737   1.758  43.606  0.00  0.00     0.130 P 
ATOM     38  O4  RX4 d          27.220   1.586  42.188  0.00  0.00    -0.666 OA
ATOM     39  O3  RX4 d          29.232   1.733  43.379  0.00  0.00    -0.666 OA
BRANCH  37  40
ATOM     40  CAT RX4 d          27.159   3.294  44.313  0.00  0.00     0.020 C 
ATOM     41  H17 RX4 d          27.833   3.553  45.142  0.00  0.00     0.050 H 
ATOM     42  H18 RX4 d          26.146   3.120  44.705  0.00  0.00     0.050 H 
BRANCH  40  43
ATOM     43  CBD RX4 d          27.091   4.506  43.376  0.00  0.00     0.029 C 
ATOM     44  H19 RX4 d          27.877   4.440  42.609  0.00  0.00     0.054 H 
BRANCH  43  45
ATOM     45  CAB RX4 d          25.645   4.707  42.699  0.00  0.00    -0.064 C 
ATOM     46  H20 RX4 d          25.770   4.942  41.632  0.00  0.00     0.028 H 
ATOM     47  H21 RX4 d          25.119   5.534  43.198  0.00  0.00     0.028 H 
ATOM     48  H22 RX4 d          25.058   3.782  42.805  0.00  0.00     0.028 H 
ENDBRANCH  43  45
BRANCH  43  49
ATOM     49  CBA RX4 d          27.255   5.779  44.293  0.00  0.00     0.222 C 
ATOM     50  OAH RX4 d          27.208   6.916  43.799  0.00  0.00    -0.273 OA
ATOM     51  N   RX4 d          27.534   5.571  45.573  0.00  0.00    -0.348 N 
ATOM     52  H23 RX4 d          27.591   4.643  45.941  0.00  0.00     0.163 HD
BRANCH  51  53
ATOM     53  CA  RX4 d          27.764   6.771  46.462  0.00  0.00     0.086 C 
ATOM     54  H24 RX4 d          27.653   7.708  45.898  0.00  0.00     0.086 H 
BRANCH  53  55
ATOM     55  CB  RX4 d          26.777   6.741  47.638  0.00  0.00    -0.049 C 
ATOM     56  H25 RX4 d          26.847   7.684  48.200  0.00  0.00     0.030 H 
ATOM     57  H26 RX4 d          27.025   5.899  48.303  0.00  0.00     0.030 H 
ATOM     58  H27 RX4 d          25.754   6.617  47.255  0.00  0.00     0.030 H 
ENDBRANCH  53  55
BRANCH  53  59
ATOM     59  C   RX4 d          29.227   6.607  47.000  0.00  0.00     0.237 C 
ATOM     60  O   RX4 d          29.414   6.103  48.158  0.00  0.00    -0.271 OA
ATOM     61  NAD RX4 d          30.222   6.967  46.209  0.00  0.00    -0.368 N 
ATOM     62  H28 RX4 d          31.168   6.875  46.522  0.00  0.00     0.159 HD
ATOM     63  H29 RX4 d          30.030   7.332  45.298  0.00  0.00     0.159 HD
ENDBRANCH  53  59
ENDBRANCH  51  53
ENDBRANCH  43  49
ENDBRANCH  40  43
ENDBRANCH  37  40
ENDBRANCH   1  37
TORSDOF 16
ENDMDL
MODEL 2
REMARK VINA RESULT:      -6.2      1.445      2.261
REMARK  16 active torsions:
REMARK  status: ('A' for Active; 'I' for Inactive)
REMARK    1  A    between atoms: CBC_6  and  CAS_7 
REMARK    2  A    between atoms: CAS_7  and  CBG_8 
REMARK    3  A    between atoms: CBG_8  and  NAW_9 
REMARK    4  A    between atoms: CBG_8  and  P1_21 
REMARK       I    between atoms: NAW_9  and  CBB_10 
REMARK    5  A    between atoms: CBB_10  and  CBF_12 
REMARK    6  A    between atoms: CBF_12  and  CAR_13 
REMARK    7  A    between atoms: CBF_12  and  NAU_17 
REMARK    8  A    between atoms: CAR_13  and  CAZ_14 
REMARK       I    between atoms: NAU_17  and  CAX_18 
REMARK    9  A    between atoms: CAX_18  and  CAA_19 
REMARK   10  A    between atoms: P1_21  and  CAT_24 
REMARK   11  A    between atoms: CAT_24  and  CBD_25 
REMARK   12  A    between atoms: CBD_25  and  CAB_26 
REMARK   13  A    between atoms: CBD_25  and  CBA_27 
REMARK       I    between atoms: CBA_27  and  N_29 
REMARK   14  A    between atoms: N_29  and  CA_30 
REMARK   15  A    between atoms: CA_30  and  CB_31 
REMARK   16  A    between atoms: CA_30  and  C_32 
REMARK       I    between atoms: C_32  and  NAD_34 
ROOT
ATOM      1  CBG RX4 d          27.241  -0.063  44.691  0.00  0.00     0.091 C 
ATOM      2  H8  RX4 d          26.160  -0.018  44.492  0.00  0.00     0.089 H 
ENDROOT
BRANCH   1   3
ATOM      3  CAS RX4 d          27.453  -0.174  46.249  0.00  0.00    -0.013 C 
ATOM      4  H6  RX4 d          27.247  -1.198  46.593  0.00  0.00     0.044 H 
ATOM      5  H7  RX4 d          28.483   0.102  46.517  0.00  0.00     0.044 H 
BRANCH   3   6
ATOM      6  CBC RX4 d          26.446   0.820  46.881  0.00  0.00    -0.056 A 
ATOM      7  CAP RX4 d          25.123   0.770  46.373  0.00  0.00    -0.077 A 
ATOM      8  CAN RX4 d          24.113   1.622  46.795  0.00  0.00    -0.082 A 
ATOM      9  H1  RX4 d          24.889   0.028  45.618  0.00  0.00     0.084 H 
ATOM     10  CAM RX4 d          24.519   2.578  47.755  0.00  0.00    -0.083 A 
ATOM     11  H2  RX4 d          23.097   1.561  46.421  0.00  0.00     0.083 H 
ATOM     12  CAO RX4 d          25.838   2.675  48.256  0.00  0.00    -0.082 A 
ATOM     13  H3  RX4 d          23.778   3.276  48.127  0.00  0.00     0.083 H 
ATOM     14  CAQ RX4 d          26.829   1.784  47.812  0.00  0.00    -0.077 A 
ATOM     15  H4  RX4 d          26.085   3.439  48.985  0.00  0.00     0.083 H 
ATOM     16  H5  RX4 d          27.848   1.843  48.178  0.00  0.00     0.084 H 
ENDBRANCH   3   6
ENDBRANCH   1   3
BRANCH   1  17
ATOM     17  NAW RX4 d          27.823  -1.212  44.003  0.00  0.00    -0.345 N 
ATOM     18  CBB RX4 d          27.184  -2.381  44.099  0.00  0.00     0.241 C 
ATOM     19  OAI RX4 d          26.097  -2.498  44.694  0.00  0.00    -0.271 OA
ATOM     20  H9  RX4 d          28.670  -1.126  43.479  0.00  0.00     0.163 HD
BRANCH  18  21
ATOM     21  CBF RX4 d          27.893  -3.668  43.649  0.00  0.00     0.098 C 
ATOM     22  H10 RX4 d          27.983  -3.681  42.553  0.00  0.00     0.088 H 
BRANCH  21  23
ATOM     23  CAR RX4 d          27.145  -4.893  44.068  0.00  0.00     0.043 C 
ATOM     24  H11 RX4 d          26.155  -4.619  44.463  0.00  0.00     0.052 H 
ATOM     25  H12 RX4 d          27.709  -5.441  44.838  0.00  0.00     0.052 H 
BRANCH  23  26
ATOM     26  CAZ RX4 d          26.994  -5.760  42.796  0.00  0.00     0.175 C 
ATOM     27  OAK RX4 d          27.033  -7.020  42.891  0.00  0.00    -0.648 OA
ATOM     28  OAG RX4 d          26.777  -5.148  41.754  0.00  0.00    -0.648 OA
ENDBRANCH  23  26
ENDBRANCH  21  23
BRANCH  21  29
ATOM     29  NAU RX4 d          29.262  -3.573  44.267  0.00  0.00    -0.348 N 
ATOM     30  CAX RX4 d          30.310  -4.298  43.835  0.00  0.00     0.214 C 
ATOM     31  OAE RX4 d          30.240  -5.150  42.916  0.00  0.00    -0.274 OA
ATOM     32  H13 RX4 d          29.399  -2.944  45.032  0.00  0.00     0.163 HD
BRANCH  30  33
ATOM     33  CAA RX4 d          31.661  -4.028  44.560  0.00  0.00    -0.003 C 
ATOM     34  H14 RX4 d          31.548  -4.232  45.635  0.00  0.00     0.040 H 
ATOM     35  H15 RX4 d          31.951  -2.977  44.415  0.00  0.00     0.040 H 
ATOM     36  H16 RX4 d          32.440  -4.684  44.142  0.00  0.00     0.040 H 
ENDBRANCH  30  33
ENDBRANCH  21  29
ENDBRANCH  18  21
ENDBRANCH   1  17
BRANCH   1  37
ATOM     37  P1  RX4 d          28.046   1.385  43.971  0.00  0.00     0.130 P 
ATOM     38  O4  RX4 d          28.818   1.003  42.720  0.00  0.00    -0.666 OA
ATOM     39  O3  RX4 d          29.147   1.960  44.832  0.00  0.00    -0.666 OA
BRANCH  37  40
ATOM     40  CAT RX4 d          26.761   2.568  43.591  0.00  0.00     0.020 C 
ATOM     41  H17 RX4 d          26.349   2.929  44.544  0.00  0.00     0.050 H 
ATOM     42  H18 RX4 d          25.977   2.038  43.030  0.00  0.00     0.050 H 
BRANCH  40  43
ATOM     43  CBD RX4 d          27.170   3.794  42.768  0.00  0.00     0.029 C 
ATOM     44  H19 RX4 d          28.149   3.629  42.295  0.00  0.00     0.054 H 
BRANCH  43  45
ATOM     45  CAB RX4 d          26.070   4.221  41.673  0.00  0.00    -0.064 C 
ATOM     46  H20 RX4 d          25.106   4.398  42.171  0.00  0.00     0.028 H 
ATOM     47  H21 RX4 d          25.959   3.415  40.933  0.00  0.00     0.028 H 
ATOM     48  H22 RX4 d          26.396   5.142  41.165  0.00  0.00     0.028 H 
ENDBRANCH  43  45
BRANCH  43  49
ATOM     49  CBA RX4 d          27.188   5.010  43.773  0.00  0.00     0.222 C 
ATOM     50  OAH RX4 d          27.782   6.058  43.476  0.00  0.00    -0.273 OA
ATOM     51  N   RX4 d          26.629   4.822  44.961  0.00  0.00    -0.348 N 
ATOM     52  H23 RX4 d          26.178   3.958  45.184  0.00  0.00     0.163 HD
BRANCH  51  53
ATOM     53  CA  RX4 d          26.691   5.945  45.970  0.00  0.00     0.086 C 
ATOM     54  H24 RX4 d          27.016   6.883  45.497  0.00  0.00     0.086 H 
BRANCH  53  55
ATOM     55  CB  RX4 d          25.314   6.130  46.624  0.00  0.00    -0.049 C 
ATOM     56  H25 RX4 d          24.700   5.234  46.447  0.00  0.00     0.030 H 
ATOM     57  H26 RX4 d          24.815   7.008  46.187  0.00  0.00     0.030 H 
ATOM     58  H27 RX4 d          25.439   6.280  47.707  0.00  0.00     0.030 H 
ENDBRANCH  53  55
BRANCH  53  59
ATOM     59  C   RX4 d          27.724   5.470  47.048  0.00  0.00     0.237 C 
ATOM     60  O   RX4 d          28.636   4.639  46.717  0.00  0.00    -0.271 OA
ATOM     61  NAD RX4 d          27.633   5.982  48.263  0.00  0.00    -0.368 N 
ATOM     62  H28 RX4 d          28.277   5.701  48.974  0.00  0.00     0.159 HD
ATOM     63  H29 RX4 d          26.919   6.652  48.471  0.00  0.00     0.159 HD
ENDBRANCH  53  59
ENDBRANCH  51  53
ENDBRANCH  43  49
ENDBRANCH  40  43
ENDBRANCH  37  40
ENDBRANCH   1  37
TORSDOF 16
ENDMDL
MODEL 3
REMARK VINA RESULT:      -6.0      2.568      4.469
REMARK  16 active torsions:
REMARK  status: ('A' for Active; 'I' for Inactive)
REMARK    1  A    between atoms: CBC_6  and  CAS_7 
REMARK    2  A    between atoms: CAS_7  and  CBG_8 
REMARK    3  A    between atoms: CBG_8  and  NAW_9 
REMARK    4  A    between atoms: CBG_8  and  P1_21 
REMARK       I    between atoms: NAW_9  and  CBB_10 
REMARK    5  A    between atoms: CBB_10  and  CBF_12 
REMARK    6  A    between atoms: CBF_12  and  CAR_13 
REMARK    7  A    between atoms: CBF_12  and  NAU_17 
REMARK    8  A    between atoms: CAR_13  and  CAZ_14 
REMARK       I    between atoms: NAU_17  and  CAX_18 
REMARK    9  A    between atoms: CAX_18  and  CAA_19 
REMARK   10  A    between atoms: P1_21  and  CAT_24 
REMARK   11  A    between atoms: CAT_24  and  CBD_25 
REMARK   12  A    between atoms: CBD_25  and  CAB_26 
REMARK   13  A    between atoms: CBD_25  and  CBA_27 
REMARK       I    between atoms: CBA_27  and  N_29 
REMARK   14  A    between atoms: N_29  and  CA_30 
REMARK   15  A    between atoms: CA_30  and  CB_31 
REMARK   16  A    between atoms: CA_30  and  C_32 
REMARK       I    between atoms: C_32  and  NAD_34 
ROOT
ATOM      1  CBG RX4 d          27.250  -0.742  44.502  0.00  0.00     0.091 C 
ATOM      2  H8  RX4 d          28.212  -0.517  44.987  0.00  0.00     0.089 H 
ENDROOT
BRANCH   1   3
ATOM      3  CAS RX4 d          27.249  -0.076  43.074  0.00  0.00    -0.013 C 
ATOM      4  H6  RX4 d          28.043  -0.509  42.448  0.00  0.00     0.044 H 
ATOM      5  H7  RX4 d          26.275  -0.222  42.584  0.00  0.00     0.044 H 
BRANCH   3   6
ATOM      6  CBC RX4 d          27.512   1.432  43.314  0.00  0.00    -0.056 A 
ATOM      7  CAP RX4 d          26.667   2.329  42.611  0.00  0.00    -0.077 A 
ATOM      8  CAN RX4 d          26.799   3.709  42.677  0.00  0.00    -0.082 A 
ATOM      9  H1  RX4 d          25.879   1.916  41.993  0.00  0.00     0.084 H 
ATOM     10  CAM RX4 d          27.875   4.153  43.479  0.00  0.00    -0.083 A 
ATOM     11  H2  RX4 d          26.133   4.389  42.157  0.00  0.00     0.083 H 
ATOM     12  CAO RX4 d          28.755   3.284  44.165  0.00  0.00    -0.082 A 
ATOM     13  H3  RX4 d          28.036   5.221  43.573  0.00  0.00     0.083 H 
ATOM     14  CAQ RX4 d          28.579   1.893  44.082  0.00  0.00    -0.077 A 
ATOM     15  H4  RX4 d          29.567   3.692  44.756  0.00  0.00     0.083 H 
ATOM     16  H5  RX4 d          29.244   1.207  44.595  0.00  0.00     0.084 H 
ENDBRANCH   3   6
ENDBRANCH   1   3
BRANCH   1  17
ATOM     17  NAW RX4 d          27.073  -2.188  44.404  0.00  0.00    -0.345 N 
ATOM     18  CBB RX4 d          28.164  -2.934  44.207  0.00  0.00     0.241 C 
ATOM     19  OAI RX4 d          29.307  -2.444  44.168  0.00  0.00    -0.271 OA
ATOM     20  H9  RX4 d          26.168  -2.604  44.482  0.00  0.00     0.163 HD
BRANCH  18  21
ATOM     21  CBF RX4 d          28.006  -4.410  43.807  0.00  0.00     0.098 C 
ATOM     22  H10 RX4 d          28.787  -4.685  43.082  0.00  0.00     0.088 H 
BRANCH  21  23
ATOM     23  CAR RX4 d          26.675  -4.680  43.182  0.00  0.00     0.043 C 
ATOM     24  H11 RX4 d          26.133  -3.737  43.016  0.00  0.00     0.052 H 
ATOM     25  H12 RX4 d          26.077  -5.339  43.829  0.00  0.00     0.052 H 
BRANCH  23  26
ATOM     26  CAZ RX4 d          26.967  -5.376  41.832  0.00  0.00     0.175 C 
ATOM     27  OAK RX4 d          26.945  -4.700  40.764  0.00  0.00    -0.648 OA
ATOM     28  OAG RX4 d          27.271  -6.564  41.897  0.00  0.00    -0.648 OA
ENDBRANCH  23  26
ENDBRANCH  21  23
BRANCH  21  29
ATOM     29  NAU RX4 d          28.221  -5.167  45.090  0.00  0.00    -0.348 N 
ATOM     30  CAX RX4 d          29.083  -6.195  45.196  0.00  0.00     0.214 C 
ATOM     31  OAE RX4 d          29.750  -6.649  44.236  0.00  0.00    -0.274 OA
ATOM     32  H13 RX4 d          27.701  -4.894  45.899  0.00  0.00     0.163 HD
BRANCH  30  33
ATOM     33  CAA RX4 d          29.212  -6.822  46.615  0.00  0.00    -0.003 C 
ATOM     34  H14 RX4 d          28.411  -6.434  47.262  0.00  0.00     0.040 H 
ATOM     35  H15 RX4 d          30.189  -6.559  47.045  0.00  0.00     0.040 H 
ATOM     36  H16 RX4 d          29.125  -7.916  46.542  0.00  0.00     0.040 H 
ENDBRANCH  30  33
ENDBRANCH  21  29
ENDBRANCH  18  21
ENDBRANCH   1  17
BRANCH   1  37
ATOM     37  P1  RX4 d          25.899  -0.164  45.552  0.00  0.00     0.130 P 
ATOM     38  O4  RX4 d          25.206  -1.335  46.229  0.00  0.00    -0.666 OA
ATOM     39  O3  RX4 d          24.751   0.450  44.783  0.00  0.00    -0.666 OA
BRANCH  37  40
ATOM     40  CAT RX4 d          26.606   0.944  46.762  0.00  0.00     0.020 C 
ATOM     41  H17 RX4 d          27.342   1.576  46.244  0.00  0.00     0.050 H 
ATOM     42  H18 RX4 d          27.119   0.329  47.517  0.00  0.00     0.050 H 
BRANCH  40  43
ATOM     43  CBD RX4 d          25.638   1.873  47.502  0.00  0.00     0.029 C 
ATOM     44  H19 RX4 d          24.625   1.444  47.507  0.00  0.00     0.054 H 
BRANCH  43  45
ATOM     45  CAB RX4 d          26.115   2.230  48.997  0.00  0.00    -0.064 C 
ATOM     46  H20 RX4 d          25.241   2.254  49.664  0.00  0.00     0.028 H 
ATOM     47  H21 RX4 d          26.605   3.215  48.999  0.00  0.00     0.028 H 
ATOM     48  H22 RX4 d          26.825   1.466  49.348  0.00  0.00     0.028 H 
ENDBRANCH  43  45
BRANCH  43  49
ATOM     49  CBA RX4 d          25.698   3.258  46.749  0.00  0.00     0.222 C 
ATOM     50  OAH RX4 d          26.730   3.945  46.785  0.00  0.00    -0.273 OA
ATOM     51  N   RX4 d          24.582   3.682  46.171  0.00  0.00    -0.348 N 
ATOM     52  H23 RX4 d          23.756   3.119  46.178  0.00  0.00     0.163 HD
BRANCH  51  53
ATOM     53  CA  RX4 d          24.589   5.036  45.501  0.00  0.00     0.086 C 
ATOM     54  H24 RX4 d          25.617   5.376  45.308  0.00  0.00     0.086 H 
BRANCH  53  55
ATOM     55  CB  RX4 d          23.798   4.967  44.187  0.00  0.00    -0.049 C 
ATOM     56  H25 RX4 d          22.722   4.917  44.408  0.00  0.00     0.030 H 
ATOM     57  H26 RX4 d          24.100   4.071  43.624  0.00  0.00     0.030 H 
ATOM     58  H27 RX4 d          24.007   5.865  43.586  0.00  0.00     0.030 H 
ENDBRANCH  53  55
BRANCH  53  59
ATOM     59  C   RX4 d          23.858   5.992  46.504  0.00  0.00     0.237 C 
ATOM     60  O   RX4 d          24.528   6.549  47.438  0.00  0.00    -0.271 OA
ATOM     61  NAD RX4 d          22.569   6.217  46.319  0.00  0.00    -0.368 N 
ATOM     62  H28 RX4 d          22.073   6.822  46.941  0.00  0.00     0.159 HD
ATOM     63  H29 RX4 d          22.089   5.780  45.557  0.00  0.00     0.159 HD
ENDBRANCH  53  59
ENDBRANCH  51  53
ENDBRANCH  43  49
ENDBRANCH  40  43
ENDBRANCH  37  40
ENDBRANCH   1  37
TORSDOF 16
ENDMDL
MODEL 4
REMARK VINA RESULT:      -6.0      2.874      7.020
REMARK  16 active torsions:
REMARK  status: ('A' for Active; 'I' for Inactive)
REMARK    1  A    between atoms: CBC_6  and  CAS_7 
REMARK    2  A    between atoms: CAS_7  and  CBG_8 
REMARK    3  A    between atoms: CBG_8  and  NAW_9 
REMARK    4  A    between atoms: CBG_8  and  P1_21 
REMARK       I    between atoms: NAW_9  and  CBB_10 
REMARK    5  A    between atoms: CBB_10  and  CBF_12 
REMARK    6  A    between atoms: CBF_12  and  CAR_13 
REMARK    7  A    between atoms: CBF_12  and  NAU_17 
REMARK    8  A    between atoms: CAR_13  and  CAZ_14 
REMARK       I    between atoms: NAU_17  and  CAX_18 
REMARK    9  A    between atoms: CAX_18  and  CAA_19 
REMARK   10  A    between atoms: P1_21  and  CAT_24 
REMARK   11  A    between atoms: CAT_24  and  CBD_25 
REMARK   12  A    between atoms: CBD_25  and  CAB_26 
REMARK   13  A    between atoms: CBD_25  and  CBA_27 
REMARK       I    between atoms: CBA_27  and  N_29 
REMARK   14  A    between atoms: N_29  and  CA_30 
REMARK   15  A    between atoms: CA_30  and  CB_31 
REMARK   16  A    between atoms: CA_30  and  C_32 
REMARK       I    between atoms: C_32  and  NAD_34 
ROOT
ATOM      1  CBG RX4 d          26.916   0.314  44.132  0.00  0.00     0.091 C 
ATOM      2  H8  RX4 d          26.191   0.065  43.343  0.00  0.00     0.089 H 
ENDROOT
BRANCH   1   3
ATOM      3  CAS RX4 d          28.240  -0.498  43.862  0.00  0.00    -0.013 C 
ATOM      4  H6  RX4 d          28.676  -0.210  42.894  0.00  0.00     0.044 H 
ATOM      5  H7  RX4 d          28.971  -0.317  44.662  0.00  0.00     0.044 H 
BRANCH   3   6
ATOM      6  CBC RX4 d          27.819  -1.990  43.841  0.00  0.00    -0.056 A 
ATOM      7  CAP RX4 d          28.590  -2.863  44.651  0.00  0.00    -0.077 A 
ATOM      8  CAN RX4 d          28.377  -4.233  44.710  0.00  0.00    -0.082 A 
ATOM      9  H1  RX4 d          29.384  -2.439  45.254  0.00  0.00     0.084 H 
ATOM     10  CAM RX4 d          27.345  -4.699  43.864  0.00  0.00    -0.083 A 
ATOM     11  H2  RX4 d          28.953  -4.891  45.351  0.00  0.00     0.083 H 
ATOM     12  CAO RX4 d          26.581  -3.859  43.021  0.00  0.00    -0.082 A 
ATOM     13  H3  RX4 d          27.126  -5.761  43.861  0.00  0.00     0.083 H 
ATOM     14  CAQ RX4 d          26.820  -2.475  43.000  0.00  0.00    -0.077 A 
ATOM     15  H4  RX4 d          25.809  -4.284  42.389  0.00  0.00     0.083 H 
ATOM     16  H5  RX4 d          26.251  -1.812  42.357  0.00  0.00     0.084 H 
ENDBRANCH   3   6
ENDBRANCH   1   3
BRANCH   1  17
ATOM     17  NAW RX4 d          27.177   1.750  44.130  0.00  0.00    -0.345 N 
ATOM     18  CBB RX4 d          27.114   2.389  42.958  0.00  0.00     0.241 C 
ATOM     19  OAI RX4 d          26.786   1.816  41.904  0.00  0.00    -0.271 OA
ATOM     20  H9  RX4 d          27.393   2.238  44.975  0.00  0.00     0.163 HD
BRANCH  18  21
ATOM     21  CBF RX4 d          27.659   3.823  42.851  0.00  0.00     0.098 C 
ATOM     22  H10 RX4 d          28.566   3.831  42.228  0.00  0.00     0.088 H 
BRANCH  21  23
ATOM     23  CAR RX4 d          28.009   4.389  44.190  0.00  0.00     0.043 C 
ATOM     24  H11 RX4 d          28.898   5.033  44.111  0.00  0.00     0.052 H 
ATOM     25  H12 RX4 d          28.204   3.579  44.908  0.00  0.00     0.052 H 
BRANCH  23  26
ATOM     26  CAZ RX4 d          26.783   5.220  44.638  0.00  0.00     0.175 C 
ATOM     27  OAK RX4 d          25.701   4.631  44.922  0.00  0.00    -0.648 OA
ATOM     28  OAG RX4 d          26.968   6.428  44.751  0.00  0.00    -0.648 OA
ENDBRANCH  23  26
ENDBRANCH  21  23
BRANCH  21  29
ATOM     29  NAU RX4 d          26.563   4.585  42.155  0.00  0.00    -0.348 N 
ATOM     30  CAX RX4 d          26.796   5.676  41.402  0.00  0.00     0.214 C 
ATOM     31  OAE RX4 d          27.931   6.187  41.246  0.00  0.00    -0.274 OA
ATOM     32  H13 RX4 d          25.621   4.267  42.257  0.00  0.00     0.163 HD
BRANCH  30  33
ATOM     33  CAA RX4 d          25.546   6.301  40.717  0.00  0.00    -0.003 C 
ATOM     34  H14 RX4 d          25.136   7.096  41.357  0.00  0.00     0.040 H 
ATOM     35  H15 RX4 d          24.784   5.523  40.565  0.00  0.00     0.040 H 
ATOM     36  H16 RX4 d          25.835   6.726  39.744  0.00  0.00     0.040 H 
ENDBRANCH  30  33
ENDBRANCH  21  29
ENDBRANCH  18  21
ENDBRANCH   1  17
BRANCH   1  37
ATOM     37  P1  RX4 d          26.190  -0.039  45.748  0.00  0.00     0.130 P 
ATOM     38  O4  RX4 d          27.265  -0.432  46.746  0.00  0.00    -0.666 OA
ATOM     39  O3  RX4 d          25.310  -1.269  45.764  0.00  0.00    -0.666 OA
BRANCH  37  40
ATOM     40  CAT RX4 d          25.338   1.440  46.278  0.00  0.00     0.020 C 
ATOM     41  H17 RX4 d          24.260   1.225  46.268  0.00  0.00     0.050 H 
ATOM     42  H18 RX4 d          25.561   2.232  45.547  0.00  0.00     0.050 H 
BRANCH  40  43
ATOM     43  CBD RX4 d          25.688   1.981  47.668  0.00  0.00     0.029 C 
ATOM     44  H19 RX4 d          25.805   1.153  48.383  0.00  0.00     0.054 H 
BRANCH  43  45
ATOM     45  CAB RX4 d          26.988   2.929  47.674  0.00  0.00    -0.064 C 
ATOM     46  H20 RX4 d          27.511   2.828  48.636  0.00  0.00     0.028 H 
ATOM     47  H21 RX4 d          26.679   3.975  47.532  0.00  0.00     0.028 H 
ATOM     48  H22 RX4 d          27.663   2.632  46.857  0.00  0.00     0.028 H 
ENDBRANCH  43  45
BRANCH  43  49
ATOM     49  CBA RX4 d          24.513   2.955  48.069  0.00  0.00     0.222 C 
ATOM     50  OAH RX4 d          23.563   2.542  48.751  0.00  0.00    -0.273 OA
ATOM     51  N   RX4 d          24.548   4.183  47.569  0.00  0.00    -0.348 N 
ATOM     52  H23 RX4 d          25.314   4.484  47.001  0.00  0.00     0.163 HD
BRANCH  51  53
ATOM     53  CA  RX4 d          23.402   5.118  47.878  0.00  0.00     0.086 C 
ATOM     54  H24 RX4 d          22.440   4.586  47.850  0.00  0.00     0.086 H 
BRANCH  53  55
ATOM     55  CB  RX4 d          23.613   5.757  49.258  0.00  0.00    -0.049 C 
ATOM     56  H25 RX4 d          23.802   4.969  50.003  0.00  0.00     0.030 H 
ATOM     57  H26 RX4 d          22.713   6.321  49.542  0.00  0.00     0.030 H 
ATOM     58  H27 RX4 d          24.476   6.438  49.219  0.00  0.00     0.030 H 
ENDBRANCH  53  55
BRANCH  53  59
ATOM     59  C   RX4 d          23.467   6.225  46.772  0.00  0.00     0.237 C 
ATOM     60  O   RX4 d          22.457   6.409  46.012  0.00  0.00    -0.271 OA
ATOM     61  NAD RX4 d          24.563   6.959  46.692  0.00  0.00    -0.368 N 
ATOM     62  H28 RX4 d          24.636   7.675  45.997  0.00  0.00     0.159 HD
ATOM     63  H29 RX4 d          25.320   6.798  47.327  0.00  0.00     0.159 HD
ENDBRANCH  53  59
ENDBRANCH  51  53
ENDBRANCH  43  49
ENDBRANCH  40  43
ENDBRANCH  37  40
ENDBRANCH   1  37
TORSDOF 16
ENDMDL
MODEL 5
REMARK VINA RESULT:      -5.8      2.436      3.984
REMARK  16 active torsions:
REMARK  status: ('A' for Active; 'I' for Inactive)
REMARK    1  A    between atoms: CBC_6  and  CAS_7 
REMARK    2  A    between atoms: CAS_7  and  CBG_8 
REMARK    3  A    between atoms: CBG_8  and  NAW_9 
REMARK    4  A    between atoms: CBG_8  and  P1_21 
REMARK       I    between atoms: NAW_9  and  CBB_10 
REMARK    5  A    between atoms: CBB_10  and  CBF_12 
REMARK    6  A    between atoms: CBF_12  and  CAR_13 
REMARK    7  A    between atoms: CBF_12  and  NAU_17 
REMARK    8  A    between atoms: CAR_13  and  CAZ_14 
REMARK       I    between atoms: NAU_17  and  CAX_18 
REMARK    9  A    between atoms: CAX_18  and  CAA_19 
REMARK   10  A    between atoms: P1_21  and  CAT_24 
REMARK   11  A    between atoms: CAT_24  and  CBD_25 
REMARK   12  A    between atoms: CBD_25  and  CAB_26 
REMARK   13  A    between atoms: CBD_25  and  CBA_27 
REMARK       I    between atoms: CBA_27  and  N_29 
REMARK   14  A    between atoms: N_29  and  CA_30 
REMARK   15  A    between atoms: CA_30  and  CB_31 
REMARK   16  A    between atoms: CA_30  and  C_32 
REMARK       I    between atoms: C_32  and  NAD_34 
ROOT
ATOM      1  CBG RX4 d          27.631   0.011  44.832  0.00  0.00     0.091 C 
ATOM      2  H8  RX4 d          28.395   0.604  45.356  0.00  0.00     0.089 H 
ENDROOT
BRANCH   1   3
ATOM      3  CAS RX4 d          27.558   0.507  43.338  0.00  0.00    -0.013 C 
ATOM      4  H6  RX4 d          28.443   0.168  42.778  0.00  0.00     0.044 H 
ATOM      5  H7  RX4 d          26.648   0.127  42.851  0.00  0.00     0.044 H 
BRANCH   3   6
ATOM      6  CBC RX4 d          27.526   2.055  43.411  0.00  0.00    -0.056 A 
ATOM      7  CAP RX4 d          26.796   2.709  42.387  0.00  0.00    -0.077 A 
ATOM      8  CAN RX4 d          26.707   4.090  42.279  0.00  0.00    -0.082 A 
ATOM      9  H1  RX4 d          26.281   2.101  41.653  0.00  0.00     0.084 H 
ATOM     10  CAM RX4 d          27.439   4.800  43.258  0.00  0.00    -0.083 A 
ATOM     11  H2  RX4 d          26.125   4.583  41.508  0.00  0.00     0.083 H 
ATOM     12  CAO RX4 d          28.204   4.176  44.272  0.00  0.00    -0.082 A 
ATOM     13  H3  RX4 d          27.413   5.883  43.231  0.00  0.00     0.083 H 
ATOM     14  CAQ RX4 d          28.257   2.775  44.354  0.00  0.00    -0.077 A 
ATOM     15  H4  RX4 d          28.750   4.781  44.987  0.00  0.00     0.083 H 
ATOM     16  H5  RX4 d          28.842   2.275  45.118  0.00  0.00     0.084 H 
ENDBRANCH   3   6
ENDBRANCH   1   3
BRANCH   1  17
ATOM     17  NAW RX4 d          27.975  -1.406  44.895  0.00  0.00    -0.345 N 
ATOM     18  CBB RX4 d          27.408  -2.222  44.001  0.00  0.00     0.241 C 
ATOM     19  OAI RX4 d          26.661  -1.803  43.099  0.00  0.00    -0.271 OA
ATOM     20  H9  RX4 d          28.613  -1.754  45.582  0.00  0.00     0.163 HD
BRANCH  18  21
ATOM     21  CBF RX4 d          27.503  -3.743  44.200  0.00  0.00     0.098 C 
ATOM     22  H10 RX4 d          26.508  -4.151  44.435  0.00  0.00     0.088 H 
BRANCH  21  23
ATOM     23  CAR RX4 d          28.429  -4.103  45.318  0.00  0.00     0.043 C 
ATOM     24  H11 RX4 d          27.958  -4.845  45.980  0.00  0.00     0.052 H 
ATOM     25  H12 RX4 d          28.692  -3.207  45.899  0.00  0.00     0.052 H 
BRANCH  23  26
ATOM     26  CAZ RX4 d          29.691  -4.701  44.654  0.00  0.00     0.175 C 
ATOM     27  OAK RX4 d          29.828  -5.956  44.590  0.00  0.00    -0.648 OA
ATOM     28  OAG RX4 d          30.472  -3.890  44.162  0.00  0.00    -0.648 OA
ENDBRANCH  23  26
ENDBRANCH  21  23
BRANCH  21  29
ATOM     29  NAU RX4 d          27.959  -4.265  42.864  0.00  0.00    -0.348 N 
ATOM     30  CAX RX4 d          27.434  -5.363  42.291  0.00  0.00     0.214 C 
ATOM     31  OAE RX4 d          26.555  -6.080  42.829  0.00  0.00    -0.274 OA
ATOM     32  H13 RX4 d          28.684  -3.774  42.382  0.00  0.00     0.163 HD
BRANCH  30  33
ATOM     33  CAA RX4 d          27.993  -5.722  40.883  0.00  0.00    -0.003 C 
ATOM     34  H14 RX4 d          27.434  -5.169  40.115  0.00  0.00     0.040 H 
ATOM     35  H15 RX4 d          27.885  -6.802  40.710  0.00  0.00     0.040 H 
ATOM     36  H16 RX4 d          29.058  -5.446  40.831  0.00  0.00     0.040 H 
ENDBRANCH  30  33
ENDBRANCH  21  29
ENDBRANCH  18  21
ENDBRANCH   1  17
BRANCH   1  37
ATOM     37  P1  RX4 d          26.055   0.159  45.702  0.00  0.00     0.130 P 
ATOM     38  O4  RX4 d          25.510  -1.211  46.065  0.00  0.00    -0.666 OA
ATOM     39  O3  RX4 d          24.934   0.702  44.843  0.00  0.00    -0.666 OA
BRANCH  37  40
ATOM     40  CAT RX4 d          26.351   1.136  47.169  0.00  0.00     0.020 C 
ATOM     41  H17 RX4 d          27.212   1.789  46.965  0.00  0.00     0.050 H 
ATOM     42  H18 RX4 d          26.602   0.442  47.985  0.00  0.00     0.050 H 
BRANCH  40  43
ATOM     43  CBD RX4 d          25.201   2.025  47.654  0.00  0.00     0.029 C 
ATOM     44  H19 RX4 d          24.233   1.555  47.428  0.00  0.00     0.054 H 
BRANCH  43  45
ATOM     45  CAB RX4 d          25.303   2.402  49.216  0.00  0.00    -0.064 C 
ATOM     46  H20 RX4 d          24.328   2.769  49.569  0.00  0.00     0.028 H 
ATOM     47  H21 RX4 d          26.062   3.185  49.355  0.00  0.00     0.028 H 
ATOM     48  H22 RX4 d          25.589   1.508  49.791  0.00  0.00     0.028 H 
ENDBRANCH  43  45
BRANCH  43  49
ATOM     49  CBA RX4 d          25.379   3.411  46.923  0.00  0.00     0.222 C 
ATOM     50  OAH RX4 d          26.375   4.116  47.152  0.00  0.00    -0.273 OA
ATOM     51  N   RX4 d          24.387   3.816  46.142  0.00  0.00    -0.348 N 
ATOM     52  H23 RX4 d          23.583   3.239  45.994  0.00  0.00     0.163 HD
BRANCH  51  53
ATOM     53  CA  RX4 d          24.498   5.170  45.483  0.00  0.00     0.086 C 
ATOM     54  H24 RX4 d          25.550   5.473  45.376  0.00  0.00     0.086 H 
BRANCH  53  55
ATOM     55  CB  RX4 d          23.815   5.134  44.108  0.00  0.00    -0.049 C 
ATOM     56  H25 RX4 d          24.521   5.477  43.338  0.00  0.00     0.030 H 
ATOM     57  H26 RX4 d          22.935   5.795  44.119  0.00  0.00     0.030 H 
ATOM     58  H27 RX4 d          23.498   4.105  43.883  0.00  0.00     0.030 H 
ENDBRANCH  53  55
BRANCH  53  59
ATOM     59  C   RX4 d          23.723   6.151  46.428  0.00  0.00     0.237 C 
ATOM     60  O   RX4 d          24.382   6.915  47.211  0.00  0.00    -0.271 OA
ATOM     61  NAD RX4 d          22.404   6.176  46.349  0.00  0.00    -0.368 N 
ATOM     62  H28 RX4 d          21.880   6.791  46.938  0.00  0.00     0.159 HD
ATOM     63  H29 RX4 d          21.931   5.580  45.700  0.00  0.00     0.159 HD
ENDBRANCH  53  59
ENDBRANCH  51  53
ENDBRANCH  43  49
ENDBRANCH  40  43
ENDBRANCH  37  40
ENDBRANCH   1  37
TORSDOF 16
ENDMDL
MODEL 6
REMARK VINA RESULT:      -5.4      2.148      4.369
REMARK  16 active torsions:
REMARK  status: ('A' for Active; 'I' for Inactive)
REMARK    1  A    between atoms: CBC_6  and  CAS_7 
REMARK    2  A    between atoms: CAS_7  and  CBG_8 
REMARK    3  A    between atoms: CBG_8  and  NAW_9 
REMARK    4  A    between atoms: CBG_8  and  P1_21 
REMARK       I    between atoms: NAW_9  and  CBB_10 
REMARK    5  A    between atoms: CBB_10  and  CBF_12 
REMARK    6  A    between atoms: CBF_12  and  CAR_13 
REMARK    7  A    between atoms: CBF_12  and  NAU_17 
REMARK    8  A    between atoms: CAR_13  and  CAZ_14 
REMARK       I    between atoms: NAU_17  and  CAX_18 
REMARK    9  A    between atoms: CAX_18  and  CAA_19 
REMARK   10  A    between atoms: P1_21  and  CAT_24 
REMARK   11  A    between atoms: CAT_24  and  CBD_25 
REMARK   12  A    between atoms: CBD_25  and  CAB_26 
REMARK   13  A    between atoms: CBD_25  and  CBA_27 
REMARK       I    between atoms: CBA_27  and  N_29 
REMARK   14  A    between atoms: N_29  and  CA_30 
REMARK   15  A    between atoms: CA_30  and  CB_31 
REMARK   16  A    between atoms: CA_30  and  C_32 
REMARK       I    between atoms: C_32  and  NAD_34 
ROOT
ATOM      1  CBG RX4 d          27.509   0.625  45.521  0.00  0.00     0.091 C 
ATOM      2  H8  RX4 d          27.956   0.211  46.438  0.00  0.00     0.089 H 
ENDROOT
BRANCH   1   3
ATOM      3  CAS RX4 d          28.393   1.840  45.046  0.00  0.00    -0.013 C 
ATOM      4  H6  RX4 d          28.402   2.630  45.812  0.00  0.00     0.044 H 
ATOM      5  H7  RX4 d          29.423   1.511  44.846  0.00  0.00     0.044 H 
BRANCH   3   6
ATOM      6  CBC RX4 d          27.729   2.358  43.745  0.00  0.00    -0.056 A 
ATOM      7  CAP RX4 d          27.394   3.736  43.725  0.00  0.00    -0.077 A 
ATOM      8  CAN RX4 d          26.752   4.348  42.657  0.00  0.00    -0.082 A 
ATOM      9  H1  RX4 d          27.652   4.341  44.586  0.00  0.00     0.084 H 
ATOM     10  CAM RX4 d          26.423   3.473  41.597  0.00  0.00    -0.083 A 
ATOM     11  H2  RX4 d          26.522   5.407  42.639  0.00  0.00     0.083 H 
ATOM     12  CAO RX4 d          26.714   2.089  41.601  0.00  0.00    -0.082 A 
ATOM     13  H3  RX4 d          25.919   3.887  40.731  0.00  0.00     0.083 H 
ATOM     14  CAQ RX4 d          27.377   1.511  42.696  0.00  0.00    -0.077 A 
ATOM     15  H4  RX4 d          26.425   1.473  40.756  0.00  0.00     0.083 H 
ATOM     16  H5  RX4 d          27.605   0.451  42.724  0.00  0.00     0.084 H 
ENDBRANCH   3   6
ENDBRANCH   1   3
BRANCH   1  17
ATOM     17  NAW RX4 d          27.447  -0.408  44.492  0.00  0.00    -0.345 N 
ATOM     18  CBB RX4 d          27.575  -1.680  44.881  0.00  0.00     0.241 C 
ATOM     19  OAI RX4 d          27.682  -2.002  46.078  0.00  0.00    -0.271 OA
ATOM     20  H9  RX4 d          27.312  -0.172  43.530  0.00  0.00     0.163 HD
BRANCH  18  21
ATOM     21  CBF RX4 d          27.809  -2.773  43.825  0.00  0.00     0.098 C 
ATOM     22  H10 RX4 d          28.503  -2.405  43.055  0.00  0.00     0.088 H 
BRANCH  21  23
ATOM     23  CAR RX4 d          26.538  -3.177  43.150  0.00  0.00     0.043 C 
ATOM     24  H11 RX4 d          26.257  -2.435  42.388  0.00  0.00     0.052 H 
ATOM     25  H12 RX4 d          25.727  -3.271  43.888  0.00  0.00     0.052 H 
BRANCH  23  26
ATOM     26  CAZ RX4 d          26.820  -4.546  42.487  0.00  0.00     0.175 C 
ATOM     27  OAK RX4 d          26.674  -5.607  43.159  0.00  0.00    -0.648 OA
ATOM     28  OAG RX4 d          27.118  -4.512  41.296  0.00  0.00    -0.648 OA
ENDBRANCH  23  26
ENDBRANCH  21  23
BRANCH  21  29
ATOM     29  NAU RX4 d          28.454  -3.896  44.591  0.00  0.00    -0.348 N 
ATOM     30  CAX RX4 d          29.661  -4.399  44.272  0.00  0.00     0.214 C 
ATOM     31  OAE RX4 d          30.339  -4.018  43.287  0.00  0.00    -0.274 OA
ATOM     32  H13 RX4 d          27.965  -4.286  45.371  0.00  0.00     0.163 HD
BRANCH  30  33
ATOM     33  CAA RX4 d          30.192  -5.522  45.210  0.00  0.00    -0.003 C 
ATOM     34  H14 RX4 d          29.396  -6.261  45.385  0.00  0.00     0.040 H 
ATOM     35  H15 RX4 d          30.502  -5.083  46.169  0.00  0.00     0.040 H 
ATOM     36  H16 RX4 d          31.054  -6.018  44.737  0.00  0.00     0.040 H 
ENDBRANCH  30  33
ENDBRANCH  21  29
ENDBRANCH  18  21
ENDBRANCH   1  17
BRANCH   1  37
ATOM     37  P1  RX4 d          25.792   1.084  45.844  0.00  0.00     0.130 P 
ATOM     38  O4  RX4 d          24.901  -0.147  45.861  0.00  0.00    -0.666 OA
ATOM     39  O3  RX4 d          25.159   1.889  44.732  0.00  0.00    -0.666 OA
BRANCH  37  40
ATOM     40  CAT RX4 d          25.757   1.918  47.424  0.00  0.00     0.020 C 
ATOM     41  H17 RX4 d          26.607   2.615  47.451  0.00  0.00     0.050 H 
ATOM     42  H18 RX4 d          25.884   1.154  48.206  0.00  0.00     0.050 H 
BRANCH  40  43
ATOM     43  CBD RX4 d          24.493   2.716  47.758  0.00  0.00     0.029 C 
ATOM     44  H19 RX4 d          23.671   2.432  47.084  0.00  0.00     0.054 H 
BRANCH  43  45
ATOM     45  CAB RX4 d          24.042   2.581  49.298  0.00  0.00    -0.064 C 
ATOM     46  H20 RX4 d          23.131   3.173  49.466  0.00  0.00     0.028 H 
ATOM     47  H21 RX4 d          24.847   2.953  49.949  0.00  0.00     0.028 H 
ATOM     48  H22 RX4 d          23.841   1.524  49.530  0.00  0.00     0.028 H 
ENDBRANCH  43  45
BRANCH  43  49
ATOM     49  CBA RX4 d          24.884   4.238  47.616  0.00  0.00     0.222 C 
ATOM     50  OAH RX4 d          24.845   4.989  48.603  0.00  0.00    -0.273 OA
ATOM     51  N   RX4 d          25.158   4.681  46.396  0.00  0.00    -0.348 N 
ATOM     52  H23 RX4 d          25.158   4.059  45.613  0.00  0.00     0.163 HD
BRANCH  51  53
ATOM     53  CA  RX4 d          25.470   6.148  46.218  0.00  0.00     0.086 C 
ATOM     54  H24 RX4 d          25.121   6.734  47.081  0.00  0.00     0.086 H 
BRANCH  53  55
ATOM     55  CB  RX4 d          26.981   6.337  46.025  0.00  0.00    -0.049 C 
ATOM     56  H25 RX4 d          27.462   5.354  45.911  0.00  0.00     0.030 H 
ATOM     57  H26 RX4 d          27.401   6.851  46.903  0.00  0.00     0.030 H 
ATOM     58  H27 RX4 d          27.163   6.941  45.124  0.00  0.00     0.030 H 
ENDBRANCH  53  55
BRANCH  53  59
ATOM     59  C   RX4 d          24.717   6.570  44.909  0.00  0.00     0.237 C 
ATOM     60  O   RX4 d          25.344   7.229  44.013  0.00  0.00    -0.271 OA
ATOM     61  NAD RX4 d          23.460   6.191  44.768  0.00  0.00    -0.368 N 
ATOM     62  H28 RX4 d          22.951   6.443  43.944  0.00  0.00     0.159 HD
ATOM     63  H29 RX4 d          23.016   5.651  45.484  0.00  0.00     0.159 HD
ENDBRANCH  53  59
ENDBRANCH  51  53
ENDBRANCH  43  49
ENDBRANCH  40  43
ENDBRANCH  37  40
ENDBRANCH   1  37
TORSDOF 16
ENDMDL
MODEL 7
REMARK VINA RESULT:      -5.4      2.759      6.667
REMARK  16 active torsions:
REMARK  status: ('A' for Active; 'I' for Inactive)
REMARK    1  A    between atoms: CBC_6  and  CAS_7 
REMARK    2  A    between atoms: CAS_7  and  CBG_8 
REMARK    3  A    between atoms: CBG_8  and  NAW_9 
REMARK    4  A    between atoms: CBG_8  and  P1_21 
REMARK       I    between atoms: NAW_9  and  CBB_10 
REMARK    5  A    between atoms: CBB_10  and  CBF_12 
REMARK    6  A    between atoms: CBF_12  and  CAR_13 
REMARK    7  A    between atoms: CBF_12  and  NAU_17 
REMARK    8  A    between atoms: CAR_13  and  CAZ_14 
REMARK       I    between atoms: NAU_17  and  CAX_18 
REMARK    9  A    between atoms: CAX_18  and  CAA_19 
REMARK   10  A    between atoms: P1_21  and  CAT_24 
REMARK   11  A    between atoms: CAT_24  and  CBD_25 
REMARK   12  A    between atoms: CBD_25  and  CAB_26 
REMARK   13  A    between atoms: CBD_25  and  CBA_27 
REMARK       I    between atoms: CBA_27  and  N_29 
REMARK   14  A    between atoms: N_29  and  CA_30 
REMARK   15  A    between atoms: CA_30  and  CB_31 
REMARK   16  A    between atoms: CA_30  and  C_32 
REMARK       I    between atoms: C_32  and  NAD_34 
ROOT
ATOM      1  CBG RX4 d          26.961   0.048  45.372  0.00  0.00     0.091 C 
ATOM      2  H8  RX4 d          27.701  -0.435  46.028  0.00  0.00     0.089 H 
ENDROOT
BRANCH   1   3
ATOM      3  CAS RX4 d          25.975  -1.059  44.838  0.00  0.00    -0.013 C 
ATOM      4  H6  RX4 d          25.229  -1.311  45.607  0.00  0.00     0.044 H 
ATOM      5  H7  RX4 d          25.462  -0.711  43.930  0.00  0.00     0.044 H 
BRANCH   3   6
ATOM      6  CBC RX4 d          26.860  -2.291  44.521  0.00  0.00    -0.056 A 
ATOM      7  CAP RX4 d          26.546  -2.989  43.327  0.00  0.00    -0.077 A 
ATOM      8  CAN RX4 d          27.208  -4.139  42.921  0.00  0.00    -0.082 A 
ATOM      9  H1  RX4 d          25.749  -2.605  42.700  0.00  0.00     0.084 H 
ATOM     10  CAM RX4 d          28.206  -4.584  43.818  0.00  0.00    -0.083 A 
ATOM     11  H2  RX4 d          26.980  -4.653  41.993  0.00  0.00     0.083 H 
ATOM     12  CAO RX4 d          28.520  -3.929  45.031  0.00  0.00    -0.082 A 
ATOM     13  H3  RX4 d          28.762  -5.478  43.561  0.00  0.00     0.083 H 
ATOM     14  CAQ RX4 d          27.834  -2.760  45.400  0.00  0.00    -0.077 A 
ATOM     15  H4  RX4 d          29.292  -4.330  45.679  0.00  0.00     0.083 H 
ATOM     16  H5  RX4 d          28.053  -2.244  46.328  0.00  0.00     0.084 H 
ENDBRANCH   3   6
ENDBRANCH   1   3
BRANCH   1  17
ATOM     17  NAW RX4 d          26.238   1.077  46.114  0.00  0.00    -0.345 N 
ATOM     18  CBB RX4 d          26.869   1.660  47.138  0.00  0.00     0.241 C 
ATOM     19  OAI RX4 d          28.050   1.399  47.428  0.00  0.00    -0.271 OA
ATOM     20  H9  RX4 d          25.305   1.335  45.865  0.00  0.00     0.163 HD
BRANCH  18  21
ATOM     21  CBF RX4 d          26.067   2.525  48.124  0.00  0.00     0.098 C 
ATOM     22  H10 RX4 d          26.080   2.062  49.122  0.00  0.00     0.088 H 
BRANCH  21  23
ATOM     23  CAR RX4 d          24.641   2.677  47.701  0.00  0.00     0.043 C 
ATOM     24  H11 RX4 d          24.013   1.924  48.200  0.00  0.00     0.052 H 
ATOM     25  H12 RX4 d          24.552   2.565  46.610  0.00  0.00     0.052 H 
BRANCH  23  26
ATOM     26  CAZ RX4 d          24.215   4.101  48.131  0.00  0.00     0.175 C 
ATOM     27  OAK RX4 d          24.200   5.032  47.276  0.00  0.00    -0.648 OA
ATOM     28  OAG RX4 d          23.849   4.221  49.297  0.00  0.00    -0.648 OA
ENDBRANCH  23  26
ENDBRANCH  21  23
BRANCH  21  29
ATOM     29  NAU RX4 d          26.814   3.831  48.163  0.00  0.00    -0.348 N 
ATOM     30  CAX RX4 d          27.189   4.491  47.052  0.00  0.00     0.214 C 
ATOM     31  OAE RX4 d          26.999   4.064  45.888  0.00  0.00    -0.274 OA
ATOM     32  H13 RX4 d          27.040   4.226  49.053  0.00  0.00     0.163 HD
BRANCH  30  33
ATOM     33  CAA RX4 d          27.906   5.853  47.288  0.00  0.00    -0.003 C 
ATOM     34  H14 RX4 d          28.723   5.968  46.561  0.00  0.00     0.040 H 
ATOM     35  H15 RX4 d          28.316   5.880  48.308  0.00  0.00     0.040 H 
ATOM     36  H16 RX4 d          27.184   6.674  47.161  0.00  0.00     0.040 H 
ENDBRANCH  30  33
ENDBRANCH  21  29
ENDBRANCH  18  21
ENDBRANCH   1  17
BRANCH   1  37
ATOM     37  P1  RX4 d          27.818   0.928  44.047  0.00  0.00     0.130 P 
ATOM     38  O4  RX4 d          28.356  -0.048  43.015  0.00  0.00    -0.666 OA
ATOM     39  O3  RX4 d          29.091   1.612  44.495  0.00  0.00    -0.666 OA
BRANCH  37  40
ATOM     40  CAT RX4 d          26.640   2.051  43.310  0.00  0.00     0.020 C 
ATOM     41  H17 RX4 d          26.419   2.834  44.049  0.00  0.00     0.050 H 
ATOM     42  H18 RX4 d          25.724   1.479  43.098  0.00  0.00     0.050 H 
BRANCH  40  43
ATOM     43  CBD RX4 d          27.062   2.746  42.011  0.00  0.00     0.029 C 
ATOM     44  H19 RX4 d          28.040   2.368  41.676  0.00  0.00     0.054 H 
BRANCH  43  45
ATOM     45  CAB RX4 d          25.968   2.621  40.837  0.00  0.00    -0.064 C 
ATOM     46  H20 RX4 d          25.886   3.583  40.310  0.00  0.00     0.028 H 
ATOM     47  H21 RX4 d          24.993   2.356  41.272  0.00  0.00     0.028 H 
ATOM     48  H22 RX4 d          26.278   1.840  40.128  0.00  0.00     0.028 H 
ENDBRANCH  43  45
BRANCH  43  49
ATOM     49  CBA RX4 d          27.095   4.290  42.331  0.00  0.00     0.222 C 
ATOM     50  OAH RX4 d          28.157   4.925  42.241  0.00  0.00    -0.273 OA
ATOM     51  N   RX4 d          25.974   4.839  42.780  0.00  0.00    -0.348 N 
ATOM     52  H23 RX4 d          25.138   4.298  42.867  0.00  0.00     0.163 HD
BRANCH  51  53
ATOM     53  CA  RX4 d          25.993   6.301  43.160  0.00  0.00     0.086 C 
ATOM     54  H24 RX4 d          26.986   6.603  43.524  0.00  0.00     0.086 H 
BRANCH  53  55
ATOM     55  CB  RX4 d          25.590   7.155  41.949  0.00  0.00    -0.049 C 
ATOM     56  H25 RX4 d          26.347   7.050  41.158  0.00  0.00     0.030 H 
ATOM     57  H26 RX4 d          25.521   8.211  42.252  0.00  0.00     0.030 H 
ATOM     58  H27 RX4 d          24.614   6.817  41.570  0.00  0.00     0.030 H 
ENDBRANCH  53  55
BRANCH  53  59
ATOM     59  C   RX4 d          24.912   6.445  44.286  0.00  0.00     0.237 C 
ATOM     60  O   RX4 d          23.802   5.826  44.169  0.00  0.00    -0.271 OA
ATOM     61  NAD RX4 d          25.212   7.181  45.342  0.00  0.00    -0.368 N 
ATOM     62  H28 RX4 d          24.545   7.292  46.079  0.00  0.00     0.159 HD
ATOM     63  H29 RX4 d          26.106   7.626  45.404  0.00  0.00     0.159 HD
ENDBRANCH  53  59
ENDBRANCH  51  53
ENDBRANCH  43  49
ENDBRANCH  40  43
ENDBRANCH  37  40
ENDBRANCH   1  37
TORSDOF 16
ENDMDL
MODEL 8
REMARK VINA RESULT:      -5.2      2.536      5.335
REMARK  16 active torsions:
REMARK  status: ('A' for Active; 'I' for Inactive)
REMARK    1  A    between atoms: CBC_6  and  CAS_7 
REMARK    2  A    between atoms: CAS_7  and  CBG_8 
REMARK    3  A    between atoms: CBG_8  and  NAW_9 
REMARK    4  A    between atoms: CBG_8  and  P1_21 
REMARK       I    between atoms: NAW_9  and  CBB_10 
REMARK    5  A    between atoms: CBB_10  and  CBF_12 
REMARK    6  A    between atoms: CBF_12  and  CAR_13 
REMARK    7  A    between atoms: CBF_12  and  NAU_17 
REMARK    8  A    between atoms: CAR_13  and  CAZ_14 
REMARK       I    between atoms: NAU_17  and  CAX_18 
REMARK    9  A    between atoms: CAX_18  and  CAA_19 
REMARK   10  A    between atoms: P1_21  and  CAT_24 
REMARK   11  A    between atoms: CAT_24  and  CBD_25 
REMARK   12  A    between atoms: CBD_25  and  CAB_26 
REMARK   13  A    between atoms: CBD_25  and  CBA_27 
REMARK       I    between atoms: CBA_27  and  N_29 
REMARK   14  A    between atoms: N_29  and  CA_30 
REMARK   15  A    between atoms: CA_30  and  CB_31 
REMARK   16  A    between atoms: CA_30  and  C_32 
REMARK       I    between atoms: C_32  and  NAD_34 
ROOT
ATOM      1  CBG RX4 d          28.353   4.030  44.443  0.00  0.00     0.091 C 
ATOM      2  H8  RX4 d          29.274   3.769  44.986  0.00  0.00     0.089 H 
ENDROOT
BRANCH   1   3
ATOM      3  CAS RX4 d          28.712   4.218  42.920  0.00  0.00    -0.013 C 
ATOM      4  H6  RX4 d          29.522   4.953  42.805  0.00  0.00     0.044 H 
ATOM      5  H7  RX4 d          29.021   3.260  42.478  0.00  0.00     0.044 H 
BRANCH   3   6
ATOM      6  CBC RX4 d          27.416   4.732  42.244  0.00  0.00    -0.056 A 
ATOM      7  CAP RX4 d          26.417   3.757  41.994  0.00  0.00    -0.077 A 
ATOM      8  CAN RX4 d          25.219   4.041  41.354  0.00  0.00    -0.082 A 
ATOM      9  H1  RX4 d          26.599   2.739  42.319  0.00  0.00     0.084 H 
ATOM     10  CAM RX4 d          25.086   5.384  40.935  0.00  0.00    -0.083 A 
ATOM     11  H2  RX4 d          24.450   3.295  41.189  0.00  0.00     0.083 H 
ATOM     12  CAO RX4 d          26.077   6.372  41.140  0.00  0.00    -0.082 A 
ATOM     13  H3  RX4 d          24.174   5.673  40.427  0.00  0.00     0.083 H 
ATOM     14  CAQ RX4 d          27.272   6.046  41.804  0.00  0.00    -0.077 A 
ATOM     15  H4  RX4 d          25.915   7.384  40.785  0.00  0.00     0.083 H 
ATOM     16  H5  RX4 d          28.048   6.786  41.967  0.00  0.00     0.084 H 
ENDBRANCH   3   6
ENDBRANCH   1   3
BRANCH   1  17
ATOM     17  NAW RX4 d          27.359   2.975  44.619  0.00  0.00    -0.345 N 
ATOM     18  CBB RX4 d          27.799   1.716  44.690  0.00  0.00     0.241 C 
ATOM     19  OAI RX4 d          29.011   1.432  44.674  0.00  0.00    -0.271 OA
ATOM     20  H9  RX4 d          26.385   3.188  44.683  0.00  0.00     0.163 HD
BRANCH  18  21
ATOM     21  CBF RX4 d          26.794   0.557  44.580  0.00  0.00     0.098 C 
ATOM     22  H10 RX4 d          26.010   0.812  43.851  0.00  0.00     0.088 H 
BRANCH  21  23
ATOM     23  CAR RX4 d          26.135   0.264  45.889  0.00  0.00     0.043 C 
ATOM     24  H11 RX4 d          26.712   0.706  46.715  0.00  0.00     0.052 H 
ATOM     25  H12 RX4 d          26.051  -0.823  46.040  0.00  0.00     0.052 H 
BRANCH  23  26
ATOM     26  CAZ RX4 d          24.728   0.905  45.815  0.00  0.00     0.175 C 
ATOM     27  OAK RX4 d          24.620   2.157  45.688  0.00  0.00    -0.648 OA
ATOM     28  OAG RX4 d          23.783   0.121  45.823  0.00  0.00    -0.648 OA
ENDBRANCH  23  26
ENDBRANCH  21  23
BRANCH  21  29
ATOM     29  NAU RX4 d          27.612  -0.595  44.059  0.00  0.00    -0.348 N 
ATOM     30  CAX RX4 d          27.563  -1.827  44.599  0.00  0.00     0.214 C 
ATOM     31  OAE RX4 d          26.875  -2.122  45.605  0.00  0.00    -0.274 OA
ATOM     32  H13 RX4 d          28.217  -0.438  43.280  0.00  0.00     0.163 HD
BRANCH  30  33
ATOM     33  CAA RX4 d          28.437  -2.905  43.894  0.00  0.00    -0.003 C 
ATOM     34  H14 RX4 d          28.087  -3.045  42.861  0.00  0.00     0.040 H 
ATOM     35  H15 RX4 d          28.357  -3.856  44.440  0.00  0.00     0.040 H 
ATOM     36  H16 RX4 d          29.487  -2.575  43.883  0.00  0.00     0.040 H 
ENDBRANCH  30  33
ENDBRANCH  21  29
ENDBRANCH  18  21
ENDBRANCH   1  17
BRANCH   1  37
ATOM     37  P1  RX4 d          27.619   5.506  45.183  0.00  0.00     0.130 P 
ATOM     38  O4  RX4 d          28.124   6.761  44.492  0.00  0.00    -0.666 OA
ATOM     39  O3  RX4 d          28.062   5.757  46.607  0.00  0.00    -0.666 OA
BRANCH  37  40
ATOM     40  CAT RX4 d          25.847   5.356  45.014  0.00  0.00     0.020 C 
ATOM     41  H17 RX4 d          25.567   4.342  45.336  0.00  0.00     0.050 H 
ATOM     42  H18 RX4 d          25.602   5.483  43.949  0.00  0.00     0.050 H 
BRANCH  40  43
ATOM     43  CBD RX4 d          24.988   6.346  45.809  0.00  0.00     0.029 C 
ATOM     44  H19 RX4 d          25.410   7.359  45.739  0.00  0.00     0.054 H 
BRANCH  43  45
ATOM     45  CAB RX4 d          23.439   6.340  45.370  0.00  0.00    -0.064 C 
ATOM     46  H20 RX4 d          22.992   7.319  45.593  0.00  0.00     0.028 H 
ATOM     47  H21 RX4 d          22.904   5.557  45.927  0.00  0.00     0.028 H 
ATOM     48  H22 RX4 d          23.364   6.139  44.291  0.00  0.00     0.028 H 
ENDBRANCH  43  45
BRANCH  43  49
ATOM     49  CBA RX4 d          24.959   5.810  47.292  0.00  0.00     0.222 C 
ATOM     50  OAH RX4 d          25.104   6.594  48.243  0.00  0.00    -0.273 OA
ATOM     51  N   RX4 d          24.869   4.498  47.460  0.00  0.00    -0.348 N 
ATOM     52  H23 RX4 d          24.778   3.886  46.675  0.00  0.00     0.163 HD
BRANCH  51  53
ATOM     53  CA  RX4 d          24.908   3.949  48.867  0.00  0.00     0.086 C 
ATOM     54  H24 RX4 d          24.694   4.737  49.604  0.00  0.00     0.086 H 
BRANCH  53  55
ATOM     55  CB  RX4 d          23.893   2.805  49.005  0.00  0.00    -0.049 C 
ATOM     56  H25 RX4 d          22.884   3.179  48.774  0.00  0.00     0.030 H 
ATOM     57  H26 RX4 d          23.914   2.419  50.035  0.00  0.00     0.030 H 
ATOM     58  H27 RX4 d          24.153   1.998  48.305  0.00  0.00     0.030 H 
ENDBRANCH  53  55
BRANCH  53  59
ATOM     59  C   RX4 d          26.359   3.388  49.048  0.00  0.00     0.237 C 
ATOM     60  O   RX4 d          27.315   4.196  49.303  0.00  0.00    -0.271 OA
ATOM     61  NAD RX4 d          26.533   2.081  48.964  0.00  0.00    -0.368 N 
ATOM     62  H28 RX4 d          27.447   1.690  49.075  0.00  0.00     0.159 HD
ATOM     63  H29 RX4 d          25.751   1.482  48.790  0.00  0.00     0.159 HD
ENDBRANCH  53  59
ENDBRANCH  51  53
ENDBRANCH  43  49
ENDBRANCH  40  43
ENDBRANCH  37  40
ENDBRANCH   1  37
TORSDOF 16
ENDMDL
MODEL 9
REMARK VINA RESULT:      -4.7      2.713      6.843
REMARK  16 active torsions:
REMARK  status: ('A' for Active; 'I' for Inactive)
REMARK    1  A    between atoms: CBC_6  and  CAS_7 
REMARK    2  A    between atoms: CAS_7  and  CBG_8 
REMARK    3  A    between atoms: CBG_8  and  NAW_9 
REMARK    4  A    between atoms: CBG_8  and  P1_21 
REMARK       I    between atoms: NAW_9  and  CBB_10 
REMARK    5  A    between atoms: CBB_10  and  CBF_12 
REMARK    6  A    between atoms: CBF_12  and  CAR_13 
REMARK    7  A    between atoms: CBF_12  and  NAU_17 
REMARK    8  A    between atoms: CAR_13  and  CAZ_14 
REMARK       I    between atoms: NAU_17  and  CAX_18 
REMARK    9  A    between atoms: CAX_18  and  CAA_19 
REMARK   10  A    between atoms: P1_21  and  CAT_24 
REMARK   11  A    between atoms: CAT_24  and  CBD_25 
REMARK   12  A    between atoms: CBD_25  and  CAB_26 
REMARK   13  A    between atoms: CBD_25  and  CBA_27 
REMARK       I    between atoms: CBA_27  and  N_29 
REMARK   14  A    between atoms: N_29  and  CA_30 
REMARK   15  A    between atoms: CA_30  and  CB_31 
REMARK   16  A    between atoms: CA_30  and  C_32 
REMARK       I    between atoms: C_32  and  NAD_34 
ROOT
ATOM      1  CBG RX4 d          26.428   0.837  44.283  0.00  0.00     0.091 C 
ATOM      2  H8  RX4 d          25.804   0.335  43.529  0.00  0.00     0.089 H 
ENDROOT
BRANCH   1   3
ATOM      3  CAS RX4 d          27.904   0.301  44.141  0.00  0.00    -0.013 C 
ATOM      4  H6  RX4 d          28.384   0.730  43.249  0.00  0.00     0.044 H 
ATOM      5  H7  RX4 d          28.492   0.558  45.033  0.00  0.00     0.044 H 
BRANCH   3   6
ATOM      6  CBC RX4 d          27.779  -1.237  44.000  0.00  0.00    -0.056 A 
ATOM      7  CAP RX4 d          28.908  -1.991  44.410  0.00  0.00    -0.077 A 
ATOM      8  CAN RX4 d          28.980  -3.373  44.305  0.00  0.00    -0.082 A 
ATOM      9  H1  RX4 d          29.758  -1.461  44.825  0.00  0.00     0.084 H 
ATOM     10  CAM RX4 d          27.842  -3.973  43.720  0.00  0.00    -0.083 A 
ATOM     11  H2  RX4 d          29.837  -3.945  44.645  0.00  0.00     0.083 H 
ATOM     12  CAO RX4 d          26.714  -3.246  43.272  0.00  0.00    -0.082 A 
ATOM     13  H3  RX4 d          27.832  -5.051  43.608  0.00  0.00     0.083 H 
ATOM     14  CAQ RX4 d          26.676  -1.848  43.408  0.00  0.00    -0.077 A 
ATOM     15  H4  RX4 d          25.877  -3.769  42.823  0.00  0.00     0.083 H 
ATOM     16  H5  RX4 d          25.825  -1.270  43.066  0.00  0.00     0.084 H 
ENDBRANCH   3   6
ENDBRANCH   1   3
BRANCH   1  17
ATOM     17  NAW RX4 d          26.377   2.282  44.085  0.00  0.00    -0.345 N 
ATOM     18  CBB RX4 d          26.540   2.743  42.841  0.00  0.00     0.241 C 
ATOM     19  OAI RX4 d          26.669   1.986  41.862  0.00  0.00    -0.271 OA
ATOM     20  H9  RX4 d          26.225   2.905  44.852  0.00  0.00     0.163 HD
BRANCH  18  21
ATOM     21  CBF RX4 d          26.787   4.244  42.619  0.00  0.00     0.098 C 
ATOM     22  H10 RX4 d          26.480   4.526  41.600  0.00  0.00     0.088 H 
BRANCH  21  23
ATOM     23  CAR RX4 d          28.229   4.604  42.787  0.00  0.00     0.043 C 
ATOM     24  H11 RX4 d          28.868   3.860  42.289  0.00  0.00     0.052 H 
ATOM     25  H12 RX4 d          28.487   4.655  43.855  0.00  0.00     0.052 H 
BRANCH  23  26
ATOM     26  CAZ RX4 d          28.405   5.992  42.126  0.00  0.00     0.175 C 
ATOM     27  OAK RX4 d          29.168   6.845  42.661  0.00  0.00    -0.648 OA
ATOM     28  OAG RX4 d          27.821   6.153  41.057  0.00  0.00    -0.648 OA
ENDBRANCH  23  26
ENDBRANCH  21  23
BRANCH  21  29
ATOM     29  NAU RX4 d          25.889   4.920  43.620  0.00  0.00    -0.348 N 
ATOM     30  CAX RX4 d          25.007   5.878  43.280  0.00  0.00     0.214 C 
ATOM     31  OAE RX4 d          24.881   6.331  42.117  0.00  0.00    -0.274 OA
ATOM     32  H13 RX4 d          25.951   4.645  44.579  0.00  0.00     0.163 HD
BRANCH  30  33
ATOM     33  CAA RX4 d          24.126   6.424  44.442  0.00  0.00    -0.003 C 
ATOM     34  H14 RX4 d          24.481   6.011  45.397  0.00  0.00     0.040 H 
ATOM     35  H15 RX4 d          23.080   6.126  44.279  0.00  0.00     0.040 H 
ATOM     36  H16 RX4 d          24.194   7.522  44.469  0.00  0.00     0.040 H 
ENDBRANCH  30  33
ENDBRANCH  21  29
ENDBRANCH  18  21
ENDBRANCH   1  17
BRANCH   1  37
ATOM     37  P1  RX4 d          25.729   0.554  45.924  0.00  0.00     0.130 P 
ATOM     38  O4  RX4 d          26.433  -0.600  46.616  0.00  0.00    -0.666 OA
ATOM     39  O3  RX4 d          24.302   0.054  45.900  0.00  0.00    -0.666 OA
BRANCH  37  40
ATOM     40  CAT RX4 d          25.927   2.069  46.851  0.00  0.00     0.020 C 
ATOM     41  H17 RX4 d          26.560   2.743  46.256  0.00  0.00     0.050 H 
ATOM     42  H18 RX4 d          26.441   1.819  47.791  0.00  0.00     0.050 H 
BRANCH  40  43
ATOM     43  CBD RX4 d          24.649   2.833  47.211  0.00  0.00     0.029 C 
ATOM     44  H19 RX4 d          23.917   2.763  46.392  0.00  0.00     0.054 H 
BRANCH  43  45
ATOM     45  CAB RX4 d          23.995   2.360  48.604  0.00  0.00    -0.064 C 
ATOM     46  H20 RX4 d          23.334   1.499  48.424  0.00  0.00     0.028 H 
ATOM     47  H21 RX4 d          23.411   3.187  49.034  0.00  0.00     0.028 H 
ATOM     48  H22 RX4 d          24.792   2.071  49.304  0.00  0.00     0.028 H 
ENDBRANCH  43  45
BRANCH  43  49
ATOM     49  CBA RX4 d          25.092   4.321  47.493  0.00  0.00     0.222 C 
ATOM     50  OAH RX4 d          24.255   5.166  47.846  0.00  0.00    -0.273 OA
ATOM     51  N   RX4 d          26.356   4.633  47.245  0.00  0.00    -0.348 N 
ATOM     52  H23 RX4 d          27.005   3.938  46.936  0.00  0.00     0.163 HD
BRANCH  51  53
ATOM     53  CA  RX4 d          26.794   6.066  47.439  0.00  0.00     0.086 C 
ATOM     54  H24 RX4 d          25.934   6.750  47.405  0.00  0.00     0.086 H 
BRANCH  53  55
ATOM     55  CB  RX4 d          27.529   6.206  48.780  0.00  0.00    -0.049 C 
ATOM     56  H25 RX4 d          28.034   7.182  48.821  0.00  0.00     0.030 H 
ATOM     57  H26 RX4 d          28.276   5.402  48.874  0.00  0.00     0.030 H 
ATOM     58  H27 RX4 d          26.805   6.132  49.605  0.00  0.00     0.030 H 
ENDBRANCH  53  55
BRANCH  53  59
ATOM     59  C   RX4 d          27.789   6.353  46.263  0.00  0.00     0.237 C 
ATOM     60  O   RX4 d          27.460   7.192  45.357  0.00  0.00    -0.271 OA
ATOM     61  NAD RX4 d          28.958   5.737  46.275  0.00  0.00    -0.368 N 
ATOM     62  H28 RX4 d          29.616   5.899  45.539  0.00  0.00     0.159 HD
ATOM     63  H29 RX4 d          29.184   5.109  47.020  0.00  0.00     0.159 HD
ENDBRANCH  53  59
ENDBRANCH  51  53
ENDBRANCH  43  49
ENDBRANCH  40  43
ENDBRANCH  37  40
ENDBRANCH   1  37
TORSDOF 16
ENDMDL
MODEL 10
REMARK VINA RESULT:      -4.2      2.738      7.314
REMARK  16 active torsions:
REMARK  status: ('A' for Active; 'I' for Inactive)
REMARK    1  A    between atoms: CBC_6  and  CAS_7 
REMARK    2  A    between atoms: CAS_7  and  CBG_8 
REMARK    3  A    between atoms: CBG_8  and  NAW_9 
REMARK    4  A    between atoms: CBG_8  and  P1_21 
REMARK       I    between atoms: NAW_9  and  CBB_10 
REMARK    5  A    between atoms: CBB_10  and  CBF_12 
REMARK    6  A    between atoms: CBF_12  and  CAR_13 
REMARK    7  A    between atoms: CBF_12  and  NAU_17 
REMARK    8  A    between atoms: CAR_13  and  CAZ_14 
REMARK       I    between atoms: NAU_17  and  CAX_18 
REMARK    9  A    between atoms: CAX_18  and  CAA_19 
REMARK   10  A    between atoms: P1_21  and  CAT_24 
REMARK   11  A    between atoms: CAT_24  and  CBD_25 
REMARK   12  A    between atoms: CBD_25  and  CAB_26 
REMARK   13  A    between atoms: CBD_25  and  CBA_27 
REMARK       I    between atoms: CBA_27  and  N_29 
REMARK   14  A    between atoms: N_29  and  CA_30 
REMARK   15  A    between atoms: CA_30  and  CB_31 
REMARK   16  A    between atoms: CA_30  and  C_32 
REMARK       I    between atoms: C_32  and  NAD_34 
ROOT
ATOM      1  CBG RX4 d          26.757   0.923  44.282  0.00  0.00     0.091 C 
ATOM      2  H8  RX4 d          26.121   0.711  43.411  0.00  0.00     0.089 H 
ENDROOT
BRANCH   1   3
ATOM      3  CAS RX4 d          28.147   0.211  44.066  0.00  0.00    -0.013 C 
ATOM      4  H6  RX4 d          28.627   0.577  43.146  0.00  0.00     0.044 H 
ATOM      5  H7  RX4 d          28.810   0.394  44.923  0.00  0.00     0.044 H 
BRANCH   3   6
ATOM      6  CBC RX4 d          27.828  -1.301  43.942  0.00  0.00    -0.056 A 
ATOM      7  CAP RX4 d          28.796  -2.185  44.482  0.00  0.00    -0.077 A 
ATOM      8  CAN RX4 d          28.688  -3.567  44.412  0.00  0.00    -0.082 A 
ATOM      9  H1  RX4 d          29.664  -1.761  44.973  0.00  0.00     0.084 H 
ATOM     10  CAM RX4 d          27.543  -4.028  43.723  0.00  0.00    -0.083 A 
ATOM     11  H2  RX4 d          29.419  -4.237  44.850  0.00  0.00     0.083 H 
ATOM     12  CAO RX4 d          26.577  -3.171  43.145  0.00  0.00    -0.082 A 
ATOM     13  H3  RX4 d          27.397  -5.098  43.631  0.00  0.00     0.083 H 
ATOM     14  CAQ RX4 d          26.717  -1.778  43.249  0.00  0.00    -0.077 A 
ATOM     15  H4  RX4 d          25.725  -3.592  42.621  0.00  0.00     0.083 H 
ATOM     16  H5  RX4 d          25.992  -1.102  42.809  0.00  0.00     0.084 H 
ENDBRANCH   3   6
ENDBRANCH   1   3
BRANCH   1  17
ATOM     17  NAW RX4 d          26.929   2.365  44.431  0.00  0.00    -0.345 N 
ATOM     18  CBB RX4 d          26.783   3.122  43.339  0.00  0.00     0.241 C 
ATOM     19  OAI RX4 d          26.452   2.646  42.239  0.00  0.00    -0.271 OA
ATOM     20  H9  RX4 d          27.147   2.772  45.318  0.00  0.00     0.163 HD
BRANCH  18  21
ATOM     21  CBF RX4 d          27.235   4.591  43.374  0.00  0.00     0.098 C 
ATOM     22  H10 RX4 d          26.356   5.252  43.345  0.00  0.00     0.088 H 
BRANCH  21  23
ATOM     23  CAR RX4 d          28.111   4.933  42.211  0.00  0.00     0.043 C 
ATOM     24  H11 RX4 d          27.858   4.305  41.345  0.00  0.00     0.052 H 
ATOM     25  H12 RX4 d          29.170   4.785  42.475  0.00  0.00     0.052 H 
BRANCH  23  26
ATOM     26  CAZ RX4 d          27.841   6.423  41.893  0.00  0.00     0.175 C 
ATOM     27  OAK RX4 d          28.815   7.210  41.718  0.00  0.00    -0.648 OA
ATOM     28  OAG RX4 d          26.661   6.737  41.766  0.00  0.00    -0.648 OA
ENDBRANCH  23  26
ENDBRANCH  21  23
BRANCH  21  29
ATOM     29  NAU RX4 d          27.931   4.735  44.701  0.00  0.00    -0.348 N 
ATOM     30  CAX RX4 d          27.776   5.811  45.494  0.00  0.00     0.214 C 
ATOM     31  OAE RX4 d          27.082   6.810  45.188  0.00  0.00    -0.274 OA
ATOM     32  H13 RX4 d          28.534   3.998  45.006  0.00  0.00     0.163 HD
BRANCH  30  33
ATOM     33  CAA RX4 d          28.533   5.759  46.853  0.00  0.00    -0.003 C 
ATOM     34  H14 RX4 d          29.347   6.499  46.848  0.00  0.00     0.040 H 
ATOM     35  H15 RX4 d          28.953   4.754  47.001  0.00  0.00     0.040 H 
ATOM     36  H16 RX4 d          27.834   5.990  47.671  0.00  0.00     0.040 H 
ENDBRANCH  30  33
ENDBRANCH  21  29
ENDBRANCH  18  21
ENDBRANCH   1  17
BRANCH   1  37
ATOM     37  P1  RX4 d          25.915   0.384  45.786  0.00  0.00     0.130 P 
ATOM     38  O4  RX4 d          26.890  -0.286  46.738  0.00  0.00    -0.666 OA
ATOM     39  O3  RX4 d          24.917  -0.729  45.558  0.00  0.00    -0.666 OA
BRANCH  37  40
ATOM     40  CAT RX4 d          25.189   1.835  46.534  0.00  0.00     0.020 C 
ATOM     41  H17 RX4 d          24.100   1.686  46.563  0.00  0.00     0.050 H 
ATOM     42  H18 RX4 d          25.424   2.695  45.889  0.00  0.00     0.050 H 
BRANCH  40  43
ATOM     43  CBD RX4 d          25.644   2.185  47.955  0.00  0.00     0.029 C 
ATOM     44  H19 RX4 d          25.508   1.322  48.624  0.00  0.00     0.054 H 
BRANCH  43  45
ATOM     45  CAB RX4 d          27.158   2.727  48.023  0.00  0.00    -0.064 C 
ATOM     46  H20 RX4 d          27.200   3.748  47.616  0.00  0.00     0.028 H 
ATOM     47  H21 RX4 d          27.810   2.069  47.429  0.00  0.00     0.028 H 
ATOM     48  H22 RX4 d          27.499   2.735  49.069  0.00  0.00     0.028 H 
ENDBRANCH  43  45
BRANCH  43  49
ATOM     49  CBA RX4 d          24.782   3.428  48.399  0.00  0.00     0.222 C 
ATOM     50  OAH RX4 d          23.721   3.263  49.021  0.00  0.00    -0.273 OA
ATOM     51  N   RX4 d          25.191   4.624  47.999  0.00  0.00    -0.348 N 
ATOM     52  H23 RX4 d          26.038   4.727  47.476  0.00  0.00     0.163 HD
BRANCH  51  53
ATOM     53  CA  RX4 d          24.349   5.828  48.350  0.00  0.00     0.086 C 
ATOM     54  H24 RX4 d          23.643   5.593  49.160  0.00  0.00     0.086 H 
BRANCH  53  55
ATOM     55  CB  RX4 d          25.259   6.995  48.761  0.00  0.00    -0.049 C 
ATOM     56  H25 RX4 d          26.310   6.676  48.709  0.00  0.00     0.030 H 
ATOM     57  H26 RX4 d          25.019   7.301  49.790  0.00  0.00     0.030 H 
ATOM     58  H27 RX4 d          25.098   7.842  48.079  0.00  0.00     0.030 H 
ENDBRANCH  53  55
BRANCH  53  59
ATOM     59  C   RX4 d          23.589   6.195  47.030  0.00  0.00     0.237 C 
ATOM     60  O   RX4 d          22.314   6.133  47.005  0.00  0.00    -0.271 OA
ATOM     61  NAD RX4 d          24.304   6.596  45.993  0.00  0.00    -0.368 N 
ATOM     62  H28 RX4 d          23.850   6.838  45.136  0.00  0.00     0.159 HD
ATOM     63  H29 RX4 d          25.300   6.656  46.067  0.00  0.00     0.159 HD
ENDBRANCH  53  59
ENDBRANCH  51  53
ENDBRANCH  43  49
ENDBRANCH  40  43
ENDBRANCH  37  40
ENDBRANCH   1  37
TORSDOF 16
ENDMDL
