MODEL 1
REMARK VINA RESULT:      -6.1      0.000      0.000
REMARK  8 active torsions:
REMARK  status: ('A' for Active; 'I' for Inactive)
REMARK    1  A    between atoms: C1_1  and  O7_7 
REMARK    2  A    between atoms: C2_2  and  O16_14 
REMARK    3  A    between atoms: C14_12  and  C4_4 
REMARK    4  A    between atoms: C10_9  and  C9_8 
REMARK    5  A    between atoms: N3_15  and  C10_9 
REMARK    6  A    between atoms: C12_10  and  C13_11 
REMARK    7  A    between atoms: N3_15  and  C12_10 
REMARK       I    between atoms: C14_12  and  N3_15 
REMARK    8  A    between atoms: O16_14  and  C15_16 
ROOT
ATOM      1  C14 MOL d          64.637  35.450  24.194  0.00  0.00     0.253 C 
ATOM      2  O15 MOL d          64.215  34.969  23.167  0.00  0.00    -0.267 OA
ATOM      3  N3  MOL d          65.133  36.721  24.269  0.00  0.00    -0.349 N 
ENDROOT
BRANCH   1   4
ATOM      4  C4  MOL d          64.681  34.622  25.433  0.00  0.00     0.035 A 
ATOM      5  C3  MOL d          65.905  34.195  25.926  0.00  0.00    -0.033 A 
ATOM      6  C2  MOL d          65.991  33.411  27.053  0.00  0.00     0.102 A 
ATOM      7  H1  MOL d          66.814  34.486  25.411  0.00  0.00     0.089 H 
ATOM      8  C1  MOL d          64.823  33.054  27.735  0.00  0.00     0.099 A 
ATOM      9  C6  MOL d          63.579  33.481  27.247  0.00  0.00    -0.047 A 
ATOM     10  C5  MOL d          63.508  34.260  26.107  0.00  0.00    -0.065 A 
ATOM     11  H3  MOL d          62.669  33.201  27.766  0.00  0.00     0.087 H 
ATOM     12  H2  MOL d          62.546  34.591  25.735  0.00  0.00     0.085 H 
BRANCH   6  13
ATOM     13  O16 MOL d          67.175  32.968  27.582  0.00  0.00    -0.353 OA
BRANCH  13  14
ATOM     14  C15 MOL d          68.395  33.591  27.098  0.00  0.00     0.010 C 
ATOM     15  H15 MOL d          68.226  34.668  26.959  0.00  0.00     0.066 H 
ATOM     16  H16 MOL d          68.682  33.137  26.138  0.00  0.00     0.066 H 
ATOM     17  H17 MOL d          69.201  33.438  27.831  0.00  0.00     0.066 H 
ENDBRANCH  13  14
ENDBRANCH   6  13
BRANCH   8  18
ATOM     18  O7  MOL d          64.910  32.302  28.868  0.00  0.00    -0.358 OA
ATOM     19  H4  MOL d          64.136  31.757  28.946  0.00  0.00     0.217 HD
ENDBRANCH   8  18
ENDBRANCH   1   4
BRANCH   3  20
ATOM     20  C10 MOL d          65.264  37.413  25.567  0.00  0.00    -0.005 C 
ATOM     21  H8  MOL d          64.483  37.041  26.246  0.00  0.00     0.063 H 
ATOM     22  H9  MOL d          66.255  37.188  25.988  0.00  0.00     0.063 H 
BRANCH  20  23
ATOM     23  C9  MOL d          65.121  38.913  25.437  0.00  0.00    -0.061 C 
ATOM     24  H5  MOL d          64.710  39.158  24.446  0.00  0.00     0.029 H 
ATOM     25  H6  MOL d          66.107  39.387  25.553  0.00  0.00     0.029 H 
ATOM     26  H7  MOL d          64.442  39.285  26.218  0.00  0.00     0.029 H 
ENDBRANCH  20  23
ENDBRANCH   3  20
BRANCH   3  27
ATOM     27  C12 MOL d          65.359  37.538  23.077  0.00  0.00    -0.005 C 
ATOM     28  H10 MOL d          64.704  37.179  22.270  0.00  0.00     0.063 H 
ATOM     29  H11 MOL d          65.114  38.585  23.311  0.00  0.00     0.063 H 
BRANCH  27  30
ATOM     30  C13 MOL d          66.802  37.463  22.609  0.00  0.00    -0.061 C 
ATOM     31  H12 MOL d          67.458  37.282  23.473  0.00  0.00     0.029 H 
ATOM     32  H13 MOL d          67.081  38.414  22.130  0.00  0.00     0.029 H 
ATOM     33  H14 MOL d          66.911  36.642  21.887  0.00  0.00     0.029 H 
ENDBRANCH  27  30
ENDBRANCH   3  27
TORSDOF 8
ENDMDL
MODEL 2
REMARK VINA RESULT:      -5.6      2.692      5.293
REMARK  8 active torsions:
REMARK  status: ('A' for Active; 'I' for Inactive)
REMARK    1  A    between atoms: C1_1  and  O7_7 
REMARK    2  A    between atoms: C2_2  and  O16_14 
REMARK    3  A    between atoms: C14_12  and  C4_4 
REMARK    4  A    between atoms: C10_9  and  C9_8 
REMARK    5  A    between atoms: N3_15  and  C10_9 
REMARK    6  A    between atoms: C12_10  and  C13_11 
REMARK    7  A    between atoms: N3_15  and  C12_10 
REMARK       I    between atoms: C14_12  and  N3_15 
REMARK    8  A    between atoms: O16_14  and  C15_16 
ROOT
ATOM      1  C14 MOL d          64.390  34.523  26.229  0.00  0.00     0.253 C 
ATOM      2  O15 MOL d          63.233  34.629  25.891  0.00  0.00    -0.267 OA
ATOM      3  N3  MOL d          64.826  33.553  27.087  0.00  0.00    -0.349 N 
ENDROOT
BRANCH   1   4
ATOM      4  C4  MOL d          65.393  35.516  25.749  0.00  0.00     0.035 A 
ATOM      5  C3  MOL d          65.987  36.380  26.657  0.00  0.00    -0.033 A 
ATOM      6  C2  MOL d          66.901  37.326  26.254  0.00  0.00     0.102 A 
ATOM      7  H1  MOL d          65.727  36.307  27.707  0.00  0.00     0.089 H 
ATOM      8  C1  MOL d          67.260  37.408  24.905  0.00  0.00     0.099 A 
ATOM      9  C6  MOL d          66.667  36.538  23.977  0.00  0.00    -0.047 A 
ATOM     10  C5  MOL d          65.742  35.599  24.396  0.00  0.00    -0.065 A 
ATOM     11  H3  MOL d          66.934  36.602  22.928  0.00  0.00     0.087 H 
ATOM     12  H2  MOL d          65.288  34.928  23.677  0.00  0.00     0.085 H 
BRANCH   6  13
ATOM     13  O16 MOL d          67.520  38.198  27.112  0.00  0.00    -0.353 OA
BRANCH  13  14
ATOM     14  C15 MOL d          66.685  38.878  28.088  0.00  0.00     0.010 C 
ATOM     15  H15 MOL d          66.864  39.961  28.032  0.00  0.00     0.066 H 
ATOM     16  H16 MOL d          66.933  38.516  29.097  0.00  0.00     0.066 H 
ATOM     17  H17 MOL d          65.626  38.670  27.873  0.00  0.00     0.066 H 
ENDBRANCH  13  14
ENDBRANCH   6  13
BRANCH   8  18
ATOM     18  O7  MOL d          68.187  38.326  24.511  0.00  0.00    -0.358 OA
ATOM     19  H4  MOL d          67.748  39.066  24.108  0.00  0.00     0.217 HD
ENDBRANCH   8  18
ENDBRANCH   1   4
BRANCH   3  20
ATOM     20  C10 MOL d          66.257  33.197  27.172  0.00  0.00    -0.005 C 
ATOM     21  H8  MOL d          66.855  34.062  26.848  0.00  0.00     0.063 H 
ATOM     22  H9  MOL d          66.498  32.954  28.217  0.00  0.00     0.063 H 
BRANCH  20  23
ATOM     23  C9  MOL d          66.608  32.010  26.303  0.00  0.00    -0.061 C 
ATOM     24  H5  MOL d          65.828  31.870  25.540  0.00  0.00     0.029 H 
ATOM     25  H6  MOL d          66.676  31.107  26.927  0.00  0.00     0.029 H 
ATOM     26  H7  MOL d          67.575  32.189  25.811  0.00  0.00     0.029 H 
ENDBRANCH  20  23
ENDBRANCH   3  20
BRANCH   3  27
ATOM     27  C12 MOL d          63.900  32.677  27.804  0.00  0.00    -0.005 C 
ATOM     28  H10 MOL d          62.934  33.191  27.911  0.00  0.00     0.063 H 
ATOM     29  H11 MOL d          63.762  31.752  27.223  0.00  0.00     0.063 H 
BRANCH  27  30
ATOM     30  C13 MOL d          64.421  32.317  29.184  0.00  0.00    -0.061 C 
ATOM     31  H12 MOL d          63.712  32.670  29.947  0.00  0.00     0.029 H 
ATOM     32  H13 MOL d          65.399  32.796  29.343  0.00  0.00     0.029 H 
ATOM     33  H14 MOL d          64.530  31.225  29.262  0.00  0.00     0.029 H 
ENDBRANCH  27  30
ENDBRANCH   3  27
TORSDOF 8
ENDMDL
MODEL 3
REMARK VINA RESULT:      -5.5      2.085      5.492
REMARK  8 active torsions:
REMARK  status: ('A' for Active; 'I' for Inactive)
REMARK    1  A    between atoms: C1_1  and  O7_7 
REMARK    2  A    between atoms: C2_2  and  O16_14 
REMARK    3  A    between atoms: C14_12  and  C4_4 
REMARK    4  A    between atoms: C10_9  and  C9_8 
REMARK    5  A    between atoms: N3_15  and  C10_9 
REMARK    6  A    between atoms: C12_10  and  C13_11 
REMARK    7  A    between atoms: N3_15  and  C12_10 
REMARK       I    between atoms: C14_12  and  N3_15 
REMARK    8  A    between atoms: O16_14  and  C15_16 
ROOT
ATOM      1  C14 MOL d          66.852  35.180  26.640  0.00  0.00     0.253 C 
ATOM      2  O15 MOL d          67.802  35.423  27.349  0.00  0.00    -0.267 OA
ATOM      3  N3  MOL d          66.260  33.950  26.588  0.00  0.00    -0.349 N 
ENDROOT
BRANCH   1   4
ATOM      4  C4  MOL d          66.322  36.236  25.730  0.00  0.00     0.035 A 
ATOM      5  C3  MOL d          66.624  36.186  24.377  0.00  0.00    -0.033 A 
ATOM      6  C2  MOL d          66.175  37.151  23.505  0.00  0.00     0.102 A 
ATOM      7  H1  MOL d          67.227  35.368  23.998  0.00  0.00     0.089 H 
ATOM      8  C1  MOL d          65.377  38.195  23.985  0.00  0.00     0.099 A 
ATOM      9  C6  MOL d          65.063  38.255  25.351  0.00  0.00    -0.047 A 
ATOM     10  C5  MOL d          65.530  37.282  26.216  0.00  0.00    -0.065 A 
ATOM     11  H3  MOL d          64.451  39.066  25.730  0.00  0.00     0.087 H 
ATOM     12  H2  MOL d          65.284  37.331  27.270  0.00  0.00     0.085 H 
BRANCH   6  13
ATOM     13  O16 MOL d          66.442  37.144  22.161  0.00  0.00    -0.353 OA
BRANCH  13  14
ATOM     14  C15 MOL d          67.723  37.680  21.733  0.00  0.00     0.010 C 
ATOM     15  H15 MOL d          67.741  38.766  21.905  0.00  0.00     0.066 H 
ATOM     16  H16 MOL d          67.865  37.476  20.662  0.00  0.00     0.066 H 
ATOM     17  H17 MOL d          68.530  37.204  22.308  0.00  0.00     0.066 H 
ENDBRANCH  13  14
ENDBRANCH   6  13
BRANCH   8  18
ATOM     18  O7  MOL d          64.907  39.134  23.116  0.00  0.00    -0.358 OA
ATOM     19  H4  MOL d          64.742  38.730  22.273  0.00  0.00     0.217 HD
ENDBRANCH   8  18
ENDBRANCH   1   4
BRANCH   3  20
ATOM     20  C10 MOL d          64.898  33.782  26.041  0.00  0.00    -0.005 C 
ATOM     21  H8  MOL d          64.662  34.650  25.409  0.00  0.00     0.063 H 
ATOM     22  H9  MOL d          64.874  32.867  25.431  0.00  0.00     0.063 H 
BRANCH  20  23
ATOM     23  C9  MOL d          63.851  33.671  27.126  0.00  0.00    -0.061 C 
ATOM     24  H5  MOL d          64.334  33.750  28.112  0.00  0.00     0.029 H 
ATOM     25  H6  MOL d          63.341  32.699  27.045  0.00  0.00     0.029 H 
ATOM     26  H7  MOL d          63.117  34.481  27.011  0.00  0.00     0.029 H 
ENDBRANCH  20  23
ENDBRANCH   3  20
BRANCH   3  27
ATOM     27  C12 MOL d          66.837  32.781  27.251  0.00  0.00    -0.005 C 
ATOM     28  H10 MOL d          67.407  33.116  28.130  0.00  0.00     0.063 H 
ATOM     29  H11 MOL d          66.022  32.116  27.574  0.00  0.00     0.063 H 
BRANCH  27  30
ATOM     30  C13 MOL d          67.764  32.010  26.328  0.00  0.00    -0.061 C 
ATOM     31  H12 MOL d          67.181  31.274  25.756  0.00  0.00     0.029 H 
ATOM     32  H13 MOL d          68.527  31.490  26.926  0.00  0.00     0.029 H 
ATOM     33  H14 MOL d          68.254  32.709  25.634  0.00  0.00     0.029 H 
ENDBRANCH  27  30
ENDBRANCH   3  27
TORSDOF 8
ENDMDL
MODEL 4
REMARK VINA RESULT:      -5.5      2.515      5.510
REMARK  8 active torsions:
REMARK  status: ('A' for Active; 'I' for Inactive)
REMARK    1  A    between atoms: C1_1  and  O7_7 
REMARK    2  A    between atoms: C2_2  and  O16_14 
REMARK    3  A    between atoms: C14_12  and  C4_4 
REMARK    4  A    between atoms: C10_9  and  C9_8 
REMARK    5  A    between atoms: N3_15  and  C10_9 
REMARK    6  A    between atoms: C12_10  and  C13_11 
REMARK    7  A    between atoms: N3_15  and  C12_10 
REMARK       I    between atoms: C14_12  and  N3_15 
REMARK    8  A    between atoms: O16_14  and  C15_16 
ROOT
ATOM      1  C14 MOL d          64.736  34.604  26.253  0.00  0.00     0.253 C 
ATOM      2  O15 MOL d          63.574  34.697  25.932  0.00  0.00    -0.267 OA
ATOM      3  N3  MOL d          65.218  33.568  27.003  0.00  0.00    -0.349 N 
ENDROOT
BRANCH   1   4
ATOM      4  C4  MOL d          65.694  35.683  25.876  0.00  0.00     0.035 A 
ATOM      5  C3  MOL d          66.005  35.883  24.539  0.00  0.00    -0.033 A 
ATOM      6  C2  MOL d          66.900  36.852  24.148  0.00  0.00     0.102 A 
ATOM      7  H1  MOL d          65.533  35.262  23.786  0.00  0.00     0.089 H 
ATOM      8  C1  MOL d          67.494  37.672  25.114  0.00  0.00     0.099 A 
ATOM      9  C6  MOL d          67.185  37.481  26.469  0.00  0.00    -0.047 A 
ATOM     10  C5  MOL d          66.291  36.495  26.847  0.00  0.00    -0.065 A 
ATOM     11  H3  MOL d          67.648  38.107  27.223  0.00  0.00     0.087 H 
ATOM     12  H2  MOL d          66.053  36.352  27.894  0.00  0.00     0.085 H 
BRANCH   6  13
ATOM     13  O16 MOL d          67.237  37.092  22.842  0.00  0.00    -0.353 OA
BRANCH  13  14
ATOM     14  C15 MOL d          66.255  37.768  22.013  0.00  0.00     0.010 C 
ATOM     15  H15 MOL d          66.584  37.748  20.964  0.00  0.00     0.066 H 
ATOM     16  H16 MOL d          66.151  38.812  22.345  0.00  0.00     0.066 H 
ATOM     17  H17 MOL d          65.285  37.257  22.103  0.00  0.00     0.066 H 
ENDBRANCH  13  14
ENDBRANCH   6  13
BRANCH   8  18
ATOM     18  O7  MOL d          68.357  38.652  24.724  0.00  0.00    -0.358 OA
ATOM     19  H4  MOL d          69.047  38.739  25.371  0.00  0.00     0.217 HD
ENDBRANCH   8  18
ENDBRANCH   1   4
BRANCH   3  20
ATOM     20  C10 MOL d          66.663  33.265  27.045  0.00  0.00    -0.005 C 
ATOM     21  H8  MOL d          67.214  34.112  26.611  0.00  0.00     0.063 H 
ATOM     22  H9  MOL d          66.964  33.130  28.095  0.00  0.00     0.063 H 
BRANCH  20  23
ATOM     23  C9  MOL d          67.012  32.012  26.274  0.00  0.00    -0.061 C 
ATOM     24  H5  MOL d          66.087  31.518  25.939  0.00  0.00     0.029 H 
ATOM     25  H6  MOL d          67.579  31.328  26.923  0.00  0.00     0.029 H 
ATOM     26  H7  MOL d          67.623  32.278  25.399  0.00  0.00     0.029 H 
ENDBRANCH  20  23
ENDBRANCH   3  20
BRANCH   3  27
ATOM     27  C12 MOL d          64.335  32.584  27.627  0.00  0.00    -0.005 C 
ATOM     28  H10 MOL d          63.298  32.944  27.562  0.00  0.00     0.063 H 
ATOM     29  H11 MOL d          64.426  31.630  27.086  0.00  0.00     0.063 H 
BRANCH  27  30
ATOM     30  C13 MOL d          64.686  32.358  29.087  0.00  0.00    -0.061 C 
ATOM     31  H12 MOL d          63.763  32.289  29.679  0.00  0.00     0.029 H 
ATOM     32  H13 MOL d          65.294  33.199  29.452  0.00  0.00     0.029 H 
ATOM     33  H14 MOL d          65.256  31.422  29.186  0.00  0.00     0.029 H 
ENDBRANCH  27  30
ENDBRANCH   3  27
TORSDOF 8
ENDMDL
MODEL 5
REMARK VINA RESULT:      -5.1      1.587      2.075
REMARK  8 active torsions:
REMARK  status: ('A' for Active; 'I' for Inactive)
REMARK    1  A    between atoms: C1_1  and  O7_7 
REMARK    2  A    between atoms: C2_2  and  O16_14 
REMARK    3  A    between atoms: C14_12  and  C4_4 
REMARK    4  A    between atoms: C10_9  and  C9_8 
REMARK    5  A    between atoms: N3_15  and  C10_9 
REMARK    6  A    between atoms: C12_10  and  C13_11 
REMARK    7  A    between atoms: N3_15  and  C12_10 
REMARK       I    between atoms: C14_12  and  N3_15 
REMARK    8  A    between atoms: O16_14  and  C15_16 
ROOT
ATOM      1  C14 MOL d          65.360  37.205  25.495  0.00  0.00     0.253 C 
ATOM      2  O15 MOL d          65.519  38.162  26.219  0.00  0.00    -0.267 OA
ATOM      3  N3  MOL d          65.120  37.321  24.155  0.00  0.00    -0.349 N 
ENDROOT
BRANCH   1   4
ATOM      4  C4  MOL d          65.366  35.832  26.076  0.00  0.00     0.035 A 
ATOM      5  C3  MOL d          66.569  35.256  26.456  0.00  0.00    -0.033 A 
ATOM      6  C2  MOL d          66.623  33.983  26.976  0.00  0.00     0.102 A 
ATOM      7  H1  MOL d          67.487  35.821  26.340  0.00  0.00     0.089 H 
ATOM      8  C1  MOL d          65.439  33.259  27.149  0.00  0.00     0.099 A 
ATOM      9  C6  MOL d          64.215  33.832  26.771  0.00  0.00    -0.047 A 
ATOM     10  C5  MOL d          64.179  35.109  26.240  0.00  0.00    -0.065 A 
ATOM     11  H3  MOL d          63.295  33.273  26.895  0.00  0.00     0.087 H 
ATOM     12  H2  MOL d          63.232  35.549  25.952  0.00  0.00     0.085 H 
BRANCH   6  13
ATOM     13  O16 MOL d          67.785  33.372  27.370  0.00  0.00    -0.353 OA
BRANCH  13  14
ATOM     14  C15 MOL d          68.995  34.175  27.365  0.00  0.00     0.010 C 
ATOM     15  H15 MOL d          69.587  33.940  26.469  0.00  0.00     0.066 H 
ATOM     16  H16 MOL d          69.587  33.951  28.264  0.00  0.00     0.066 H 
ATOM     17  H17 MOL d          68.727  35.242  27.358  0.00  0.00     0.066 H 
ENDBRANCH  13  14
ENDBRANCH   6  13
BRANCH   8  18
ATOM     18  O7  MOL d          65.489  32.010  27.692  0.00  0.00    -0.358 OA
ATOM     19  H4  MOL d          64.763  31.899  28.295  0.00  0.00     0.217 HD
ENDBRANCH   8  18
ENDBRANCH   1   4
BRANCH   3  20
ATOM     20  C10 MOL d          65.323  36.178  23.242  0.00  0.00    -0.005 C 
ATOM     21  H8  MOL d          65.809  36.541  22.325  0.00  0.00     0.063 H 
ATOM     22  H9  MOL d          65.975  35.443  23.737  0.00  0.00     0.063 H 
BRANCH  20  23
ATOM     23  C9  MOL d          64.024  35.500  22.868  0.00  0.00    -0.061 C 
ATOM     24  H5  MOL d          63.223  36.253  22.802  0.00  0.00     0.029 H 
ATOM     25  H6  MOL d          63.764  34.756  23.635  0.00  0.00     0.029 H 
ATOM     26  H7  MOL d          64.138  35.000  21.896  0.00  0.00     0.029 H 
ENDBRANCH  20  23
ENDBRANCH   3  20
BRANCH   3  27
ATOM     27  C12 MOL d          64.858  38.613  23.521  0.00  0.00    -0.005 C 
ATOM     28  H10 MOL d          63.780  38.698  23.320  0.00  0.00     0.063 H 
ATOM     29  H11 MOL d          65.168  39.416  24.207  0.00  0.00     0.063 H 
BRANCH  27  30
ATOM     30  C13 MOL d          65.616  38.762  22.214  0.00  0.00    -0.061 C 
ATOM     31  H12 MOL d          66.650  39.070  22.424  0.00  0.00     0.029 H 
ATOM     32  H13 MOL d          65.125  39.526  21.592  0.00  0.00     0.029 H 
ATOM     33  H14 MOL d          65.620  37.801  21.681  0.00  0.00     0.029 H 
ENDBRANCH  27  30
ENDBRANCH   3  27
TORSDOF 8
ENDMDL
MODEL 6
REMARK VINA RESULT:      -5.1      0.915      2.260
REMARK  8 active torsions:
REMARK  status: ('A' for Active; 'I' for Inactive)
REMARK    1  A    between atoms: C1_1  and  O7_7 
REMARK    2  A    between atoms: C2_2  and  O16_14 
REMARK    3  A    between atoms: C14_12  and  C4_4 
REMARK    4  A    between atoms: C10_9  and  C9_8 
REMARK    5  A    between atoms: N3_15  and  C10_9 
REMARK    6  A    between atoms: C12_10  and  C13_11 
REMARK    7  A    between atoms: N3_15  and  C12_10 
REMARK       I    between atoms: C14_12  and  N3_15 
REMARK    8  A    between atoms: O16_14  and  C15_16 
ROOT
ATOM      1  C14 MOL d          64.877  35.472  24.196  0.00  0.00     0.253 C 
ATOM      2  O15 MOL d          64.345  34.904  23.269  0.00  0.00    -0.267 OA
ATOM      3  N3  MOL d          65.027  36.829  24.245  0.00  0.00    -0.349 N 
ENDROOT
BRANCH   1   4
ATOM      4  C4  MOL d          65.453  34.676  25.317  0.00  0.00     0.035 A 
ATOM      5  C3  MOL d          64.605  33.980  26.166  0.00  0.00    -0.033 A 
ATOM      6  C2  MOL d          65.092  33.250  27.226  0.00  0.00     0.102 A 
ATOM      7  H1  MOL d          63.536  34.011  25.990  0.00  0.00     0.089 H 
ATOM      8  C1  MOL d          66.472  33.186  27.443  0.00  0.00     0.099 A 
ATOM      9  C6  MOL d          67.340  33.884  26.589  0.00  0.00    -0.047 A 
ATOM     10  C5  MOL d          66.834  34.622  25.534  0.00  0.00    -0.065 A 
ATOM     11  H3  MOL d          68.410  33.846  26.757  0.00  0.00     0.087 H 
ATOM     12  H2  MOL d          67.508  35.157  24.875  0.00  0.00     0.085 H 
BRANCH   6  13
ATOM     13  O16 MOL d          64.297  32.543  28.090  0.00  0.00    -0.353 OA
BRANCH  13  14
ATOM     14  C15 MOL d          62.910  32.345  27.708  0.00  0.00     0.010 C 
ATOM     15  H15 MOL d          62.412  31.706  28.452  0.00  0.00     0.066 H 
ATOM     16  H16 MOL d          62.867  31.860  26.722  0.00  0.00     0.066 H 
ATOM     17  H17 MOL d          62.399  33.318  27.661  0.00  0.00     0.066 H 
ENDBRANCH  13  14
ENDBRANCH   6  13
BRANCH   8  18
ATOM     18  O7  MOL d          66.956  32.439  28.475  0.00  0.00    -0.358 OA
ATOM     19  H4  MOL d          67.497  32.986  29.033  0.00  0.00     0.217 HD
ENDBRANCH   8  18
ENDBRANCH   1   4
BRANCH   3  20
ATOM     20  C10 MOL d          65.304  37.520  25.521  0.00  0.00    -0.005 C 
ATOM     21  H8  MOL d          64.461  38.187  25.751  0.00  0.00     0.063 H 
ATOM     22  H9  MOL d          65.403  36.766  26.316  0.00  0.00     0.063 H 
BRANCH  20  23
ATOM     23  C9  MOL d          66.573  38.340  25.469  0.00  0.00    -0.061 C 
ATOM     24  H5  MOL d          66.318  39.411  25.463  0.00  0.00     0.029 H 
ATOM     25  H6  MOL d          67.133  38.092  24.556  0.00  0.00     0.029 H 
ATOM     26  H7  MOL d          67.191  38.116  26.351  0.00  0.00     0.029 H 
ENDBRANCH  20  23
ENDBRANCH   3  20
BRANCH   3  27
ATOM     27  C12 MOL d          64.718  37.688  23.103  0.00  0.00    -0.005 C 
ATOM     28  H10 MOL d          63.799  37.322  22.621  0.00  0.00     0.063 H 
ATOM     29  H11 MOL d          64.560  38.716  23.462  0.00  0.00     0.063 H 
BRANCH  27  30
ATOM     30  C13 MOL d          65.841  37.691  22.081  0.00  0.00    -0.061 C 
ATOM     31  H12 MOL d          66.496  36.826  22.254  0.00  0.00     0.029 H 
ATOM     32  H13 MOL d          66.424  38.618  22.181  0.00  0.00     0.029 H 
ATOM     33  H14 MOL d          65.415  37.632  21.068  0.00  0.00     0.029 H 
ENDBRANCH  27  30
ENDBRANCH   3  27
TORSDOF 8
ENDMDL
MODEL 7
REMARK VINA RESULT:      -4.8      1.763      2.961
REMARK  8 active torsions:
REMARK  status: ('A' for Active; 'I' for Inactive)
REMARK    1  A    between atoms: C1_1  and  O7_7 
REMARK    2  A    between atoms: C2_2  and  O16_14 
REMARK    3  A    between atoms: C14_12  and  C4_4 
REMARK    4  A    between atoms: C10_9  and  C9_8 
REMARK    5  A    between atoms: N3_15  and  C10_9 
REMARK    6  A    between atoms: C12_10  and  C13_11 
REMARK    7  A    between atoms: N3_15  and  C12_10 
REMARK       I    between atoms: C14_12  and  N3_15 
REMARK    8  A    between atoms: O16_14  and  C15_16 
ROOT
ATOM      1  C14 MOL d          65.740  37.219  25.545  0.00  0.00     0.253 C 
ATOM      2  O15 MOL d          65.960  38.180  26.245  0.00  0.00    -0.267 OA
ATOM      3  N3  MOL d          65.287  37.325  24.261  0.00  0.00    -0.349 N 
ENDROOT
BRANCH   1   4
ATOM      4  C4  MOL d          65.908  35.846  26.103  0.00  0.00     0.035 A 
ATOM      5  C3  MOL d          64.789  35.055  26.318  0.00  0.00    -0.033 A 
ATOM      6  C2  MOL d          64.896  33.791  26.851  0.00  0.00     0.102 A 
ATOM      7  H1  MOL d          63.809  35.441  26.061  0.00  0.00     0.089 H 
ATOM      8  C1  MOL d          66.159  33.279  27.163  0.00  0.00     0.099 A 
ATOM      9  C6  MOL d          67.299  34.069  26.946  0.00  0.00    -0.047 A 
ATOM     10  C5  MOL d          67.174  35.341  26.419  0.00  0.00    -0.065 A 
ATOM     11  H3  MOL d          68.281  33.680  27.193  0.00  0.00     0.087 H 
ATOM     12  H2  MOL d          68.057  35.947  26.252  0.00  0.00     0.085 H 
BRANCH   6  13
ATOM     13  O16 MOL d          63.822  32.970  27.079  0.00  0.00    -0.353 OA
BRANCH  13  14
ATOM     14  C15 MOL d          63.363  32.839  28.451  0.00  0.00     0.010 C 
ATOM     15  H15 MOL d          62.328  33.204  28.527  0.00  0.00     0.066 H 
ATOM     16  H16 MOL d          64.010  33.433  29.112  0.00  0.00     0.066 H 
ATOM     17  H17 MOL d          63.402  31.782  28.751  0.00  0.00     0.066 H 
ENDBRANCH  13  14
ENDBRANCH   6  13
BRANCH   8  18
ATOM     18  O7  MOL d          66.267  32.016  27.663  0.00  0.00    -0.358 OA
ATOM     19  H4  MOL d          66.600  32.056  28.552  0.00  0.00     0.217 HD
ENDBRANCH   8  18
ENDBRANCH   1   4
BRANCH   3  20
ATOM     20  C10 MOL d          65.404  36.197  23.315  0.00  0.00    -0.005 C 
ATOM     21  H8  MOL d          65.927  36.546  22.412  0.00  0.00     0.063 H 
ATOM     22  H9  MOL d          65.988  35.396  23.791  0.00  0.00     0.063 H 
BRANCH  20  23
ATOM     23  C9  MOL d          64.057  35.641  22.910  0.00  0.00    -0.061 C 
ATOM     24  H5  MOL d          63.768  34.837  23.605  0.00  0.00     0.029 H 
ATOM     25  H6  MOL d          64.118  35.238  21.889  0.00  0.00     0.029 H 
ATOM     26  H7  MOL d          63.304  36.442  22.944  0.00  0.00     0.029 H 
ENDBRANCH  20  23
ENDBRANCH   3  20
BRANCH   3  27
ATOM     27  C12 MOL d          64.861  38.602  23.690  0.00  0.00    -0.005 C 
ATOM     28  H10 MOL d          63.774  38.573  23.523  0.00  0.00     0.063 H 
ATOM     29  H11 MOL d          65.102  39.408  24.400  0.00  0.00     0.063 H 
BRANCH  27  30
ATOM     30  C13 MOL d          65.554  38.888  22.369  0.00  0.00    -0.061 C 
ATOM     31  H12 MOL d          66.635  38.991  22.538  0.00  0.00     0.029 H 
ATOM     32  H13 MOL d          65.159  39.821  21.943  0.00  0.00     0.029 H 
ATOM     33  H14 MOL d          65.369  38.058  21.672  0.00  0.00     0.029 H 
ENDBRANCH  27  30
ENDBRANCH   3  27
TORSDOF 8
ENDMDL
MODEL 8
REMARK VINA RESULT:      -4.5      1.923      2.405
REMARK  8 active torsions:
REMARK  status: ('A' for Active; 'I' for Inactive)
REMARK    1  A    between atoms: C1_1  and  O7_7 
REMARK    2  A    between atoms: C2_2  and  O16_14 
REMARK    3  A    between atoms: C14_12  and  C4_4 
REMARK    4  A    between atoms: C10_9  and  C9_8 
REMARK    5  A    between atoms: N3_15  and  C10_9 
REMARK    6  A    between atoms: C12_10  and  C13_11 
REMARK    7  A    between atoms: N3_15  and  C12_10 
REMARK       I    between atoms: C14_12  and  N3_15 
REMARK    8  A    between atoms: O16_14  and  C15_16 
ROOT
ATOM      1  C14 MOL d          66.853  36.392  25.640  0.00  0.00     0.253 C 
ATOM      2  O15 MOL d          67.788  36.614  26.376  0.00  0.00    -0.267 OA
ATOM      3  N3  MOL d          66.698  37.010  24.432  0.00  0.00    -0.349 N 
ENDROOT
BRANCH   1   4
ATOM      4  C4  MOL d          65.781  35.451  26.074  0.00  0.00     0.035 A 
ATOM      5  C3  MOL d          66.128  34.212  26.592  0.00  0.00    -0.033 A 
ATOM      6  C2  MOL d          65.171  33.304  26.983  0.00  0.00     0.102 A 
ATOM      7  H1  MOL d          67.177  33.953  26.690  0.00  0.00     0.089 H 
ATOM      8  C1  MOL d          63.818  33.642  26.881  0.00  0.00     0.099 A 
ATOM      9  C6  MOL d          63.454  34.894  26.361  0.00  0.00    -0.047 A 
ATOM     10  C5  MOL d          64.428  35.791  25.962  0.00  0.00    -0.065 A 
ATOM     11  H3  MOL d          62.407  35.158  26.272  0.00  0.00     0.087 H 
ATOM     12  H2  MOL d          64.143  36.758  25.564  0.00  0.00     0.085 H 
BRANCH   6  13
ATOM     13  O16 MOL d          65.463  32.071  27.505  0.00  0.00    -0.353 OA
BRANCH  13  14
ATOM     14  C15 MOL d          65.827  32.010  28.909  0.00  0.00     0.010 C 
ATOM     15  H15 MOL d          65.972  30.961  29.205  0.00  0.00     0.066 H 
ATOM     16  H16 MOL d          65.024  32.454  29.516  0.00  0.00     0.066 H 
ATOM     17  H17 MOL d          66.761  32.569  29.071  0.00  0.00     0.066 H 
ENDBRANCH  13  14
ENDBRANCH   6  13
BRANCH   8  18
ATOM     18  O7  MOL d          62.871  32.755  27.297  0.00  0.00    -0.358 OA
ATOM     19  H4  MOL d          62.570  32.999  28.165  0.00  0.00     0.217 HD
ENDBRANCH   8  18
ENDBRANCH   1   4
BRANCH   3  20
ATOM     20  C10 MOL d          65.800  36.452  23.400  0.00  0.00    -0.005 C 
ATOM     21  H8  MOL d          66.399  36.194  22.514  0.00  0.00     0.063 H 
ATOM     22  H9  MOL d          65.325  35.544  23.799  0.00  0.00     0.063 H 
BRANCH  20  23
ATOM     23  C9  MOL d          64.718  37.426  22.989  0.00  0.00    -0.061 C 
ATOM     24  H5  MOL d          64.385  37.194  21.967  0.00  0.00     0.029 H 
ATOM     25  H6  MOL d          65.117  38.451  23.022  0.00  0.00     0.029 H 
ATOM     26  H7  MOL d          63.867  37.341  23.680  0.00  0.00     0.029 H 
ENDBRANCH  20  23
ENDBRANCH   3  20
BRANCH   3  27
ATOM     27  C12 MOL d          67.553  38.119  24.010  0.00  0.00    -0.005 C 
ATOM     28  H10 MOL d          67.029  39.066  24.203  0.00  0.00     0.063 H 
ATOM     29  H11 MOL d          68.486  38.090  24.593  0.00  0.00     0.063 H 
BRANCH  27  30
ATOM     30  C13 MOL d          67.893  38.037  22.533  0.00  0.00    -0.061 C 
ATOM     31  H12 MOL d          68.864  38.521  22.353  0.00  0.00     0.029 H 
ATOM     32  H13 MOL d          67.115  38.549  21.949  0.00  0.00     0.029 H 
ATOM     33  H14 MOL d          67.948  36.982  22.227  0.00  0.00     0.029 H 
ENDBRANCH  27  30
ENDBRANCH   3  27
TORSDOF 8
ENDMDL
MODEL 9
REMARK VINA RESULT:      -4.5      2.798      4.132
REMARK  8 active torsions:
REMARK  status: ('A' for Active; 'I' for Inactive)
REMARK    1  A    between atoms: C1_1  and  O7_7 
REMARK    2  A    between atoms: C2_2  and  O16_14 
REMARK    3  A    between atoms: C14_12  and  C4_4 
REMARK    4  A    between atoms: C10_9  and  C9_8 
REMARK    5  A    between atoms: N3_15  and  C10_9 
REMARK    6  A    between atoms: C12_10  and  C13_11 
REMARK    7  A    between atoms: N3_15  and  C12_10 
REMARK       I    between atoms: C14_12  and  N3_15 
REMARK    8  A    between atoms: O16_14  and  C15_16 
ROOT
ATOM      1  C14 MOL d          65.804  38.301  24.836  0.00  0.00     0.253 C 
ATOM      2  O15 MOL d          64.760  38.880  25.033  0.00  0.00    -0.267 OA
ATOM      3  N3  MOL d          66.176  37.840  23.606  0.00  0.00    -0.349 N 
ENDROOT
BRANCH   1   4
ATOM      4  C4  MOL d          66.714  38.014  25.982  0.00  0.00     0.035 A 
ATOM      5  C3  MOL d          67.156  36.716  26.193  0.00  0.00    -0.033 A 
ATOM      6  C2  MOL d          67.980  36.402  27.250  0.00  0.00     0.102 A 
ATOM      7  H1  MOL d          66.847  35.932  25.511  0.00  0.00     0.089 H 
ATOM      8  C1  MOL d          68.402  37.414  28.119  0.00  0.00     0.099 A 
ATOM      9  C6  MOL d          67.964  38.731  27.913  0.00  0.00    -0.047 A 
ATOM     10  C5  MOL d          67.128  39.028  26.852  0.00  0.00    -0.065 A 
ATOM     11  H3  MOL d          68.281  39.518  28.588  0.00  0.00     0.087 H 
ATOM     12  H2  MOL d          66.793  40.047  26.695  0.00  0.00     0.085 H 
BRANCH   6  13
ATOM     13  O16 MOL d          68.447  35.138  27.500  0.00  0.00    -0.353 OA
BRANCH  13  14
ATOM     14  C15 MOL d          67.730  34.031  26.891  0.00  0.00     0.010 C 
ATOM     15  H15 MOL d          66.754  33.912  27.382  0.00  0.00     0.066 H 
ATOM     16  H16 MOL d          68.315  33.107  27.010  0.00  0.00     0.066 H 
ATOM     17  H17 MOL d          67.580  34.235  25.821  0.00  0.00     0.066 H 
ENDBRANCH  13  14
ENDBRANCH   6  13
BRANCH   8  18
ATOM     18  O7  MOL d          69.242  37.108  29.148  0.00  0.00    -0.358 OA
ATOM     19  H4  MOL d          70.139  37.119  28.837  0.00  0.00     0.217 HD
ENDBRANCH   8  18
ENDBRANCH   1   4
BRANCH   3  20
ATOM     20  C10 MOL d          67.584  37.505  23.311  0.00  0.00    -0.005 C 
ATOM     21  H8  MOL d          68.235  38.150  23.918  0.00  0.00     0.063 H 
ATOM     22  H9  MOL d          67.759  36.452  23.577  0.00  0.00     0.063 H 
BRANCH  20  23
ATOM     23  C9  MOL d          67.930  37.701  21.851  0.00  0.00    -0.061 C 
ATOM     24  H5  MOL d          69.024  37.713  21.732  0.00  0.00     0.029 H 
ATOM     25  H6  MOL d          67.512  38.656  21.501  0.00  0.00     0.029 H 
ATOM     26  H7  MOL d          67.506  36.876  21.260  0.00  0.00     0.029 H 
ENDBRANCH  20  23
ENDBRANCH   3  20
BRANCH   3  27
ATOM     27  C12 MOL d          65.264  37.852  22.463  0.00  0.00    -0.005 C 
ATOM     28  H10 MOL d          64.678  38.783  22.484  0.00  0.00     0.063 H 
ATOM     29  H11 MOL d          65.854  37.811  21.535  0.00  0.00     0.063 H 
BRANCH  27  30
ATOM     30  C13 MOL d          64.310  36.671  22.491  0.00  0.00    -0.061 C 
ATOM     31  H12 MOL d          63.359  36.957  22.020  0.00  0.00     0.029 H 
ATOM     32  H13 MOL d          64.127  36.373  23.534  0.00  0.00     0.029 H 
ATOM     33  H14 MOL d          64.753  35.828  21.941  0.00  0.00     0.029 H 
ENDBRANCH  27  30
ENDBRANCH   3  27
TORSDOF 8
ENDMDL
MODEL 10
REMARK VINA RESULT:      -4.4      2.476      4.468
REMARK  8 active torsions:
REMARK  status: ('A' for Active; 'I' for Inactive)
REMARK    1  A    between atoms: C1_1  and  O7_7 
REMARK    2  A    between atoms: C2_2  and  O16_14 
REMARK    3  A    between atoms: C14_12  and  C4_4 
REMARK    4  A    between atoms: C10_9  and  C9_8 
REMARK    5  A    between atoms: N3_15  and  C10_9 
REMARK    6  A    between atoms: C12_10  and  C13_11 
REMARK    7  A    between atoms: N3_15  and  C12_10 
REMARK       I    between atoms: C14_12  and  N3_15 
REMARK    8  A    between atoms: O16_14  and  C15_16 
ROOT
ATOM      1  C14 MOL d          67.421  37.944  24.627  0.00  0.00     0.253 C 
ATOM      2  O15 MOL d          68.186  38.432  23.827  0.00  0.00    -0.267 OA
ATOM      3  N3  MOL d          67.622  38.004  25.977  0.00  0.00    -0.349 N 
ENDROOT
BRANCH   1   4
ATOM      4  C4  MOL d          66.230  37.189  24.142  0.00  0.00     0.035 A 
ATOM      5  C3  MOL d          65.850  36.024  24.791  0.00  0.00    -0.033 A 
ATOM      6  C2  MOL d          64.771  35.284  24.364  0.00  0.00     0.102 A 
ATOM      7  H1  MOL d          66.416  35.688  25.653  0.00  0.00     0.089 H 
ATOM      8  C1  MOL d          64.023  35.726  23.268  0.00  0.00     0.099 A 
ATOM      9  C6  MOL d          64.396  36.905  22.606  0.00  0.00    -0.047 A 
ATOM     10  C5  MOL d          65.489  37.632  23.040  0.00  0.00    -0.065 A 
ATOM     11  H3  MOL d          63.825  37.248  21.750  0.00  0.00     0.087 H 
ATOM     12  H2  MOL d          65.773  38.543  22.528  0.00  0.00     0.085 H 
BRANCH   6  13
ATOM     13  O16 MOL d          64.354  34.129  24.973  0.00  0.00    -0.353 OA
BRANCH  13  14
ATOM     14  C15 MOL d          63.742  34.251  26.285  0.00  0.00     0.010 C 
ATOM     15  H15 MOL d          64.272  35.019  26.867  0.00  0.00     0.066 H 
ATOM     16  H16 MOL d          63.805  33.286  26.809  0.00  0.00     0.066 H 
ATOM     17  H17 MOL d          62.687  34.539  26.173  0.00  0.00     0.066 H 
ENDBRANCH  13  14
ENDBRANCH   6  13
BRANCH   8  18
ATOM     18  O7  MOL d          62.936  35.009  22.864  0.00  0.00    -0.358 OA
ATOM     19  H4  MOL d          62.635  34.462  23.580  0.00  0.00     0.217 HD
ENDBRANCH   8  18
ENDBRANCH   1   4
BRANCH   3  20
ATOM     20  C10 MOL d          66.514  37.765  26.924  0.00  0.00    -0.005 C 
ATOM     21  H8  MOL d          65.973  36.860  26.613  0.00  0.00     0.063 H 
ATOM     22  H9  MOL d          66.936  37.614  27.929  0.00  0.00     0.063 H 
BRANCH  20  23
ATOM     23  C9  MOL d          65.540  38.921  26.974  0.00  0.00    -0.061 C 
ATOM     24  H5  MOL d          65.986  39.752  27.541  0.00  0.00     0.029 H 
ATOM     25  H6  MOL d          64.613  38.597  27.468  0.00  0.00     0.029 H 
ATOM     26  H7  MOL d          65.314  39.255  25.952  0.00  0.00     0.029 H 
ENDBRANCH  20  23
ENDBRANCH   3  20
BRANCH   3  27
ATOM     27  C12 MOL d          68.868  38.506  26.556  0.00  0.00    -0.005 C 
ATOM     28  H10 MOL d          69.711  37.947  26.125  0.00  0.00     0.063 H 
ATOM     29  H11 MOL d          68.970  39.573  26.309  0.00  0.00     0.063 H 
BRANCH  27  30
ATOM     30  C13 MOL d          68.892  38.345  28.065  0.00  0.00    -0.061 C 
ATOM     31  H12 MOL d          68.039  38.883  28.504  0.00  0.00     0.029 H 
ATOM     32  H13 MOL d          69.830  38.760  28.463  0.00  0.00     0.029 H 
ATOM     33  H14 MOL d          68.824  37.278  28.322  0.00  0.00     0.029 H 
ENDBRANCH  27  30
ENDBRANCH   3  27
TORSDOF 8
ENDMDL
