MODEL 1
REMARK VINA RESULT:      -7.2      0.000      0.000
REMARK  7 active torsions:
REMARK  status: ('A' for Active; 'I' for Inactive)
REMARK    1  A    between atoms: C3_3  and  O3_10 
REMARK    2  A    between atoms: C4_4  and  O4_11 
REMARK    3  A    between atoms: C5_5  and  C6_6 
REMARK    4  A    between atoms: C6_6  and  O6_14 
REMARK    5  A    between atoms: N1_13  and  C7_7 
REMARK    6  A    between atoms: C9_16  and  C10_8 
REMARK    7  A    between atoms: N1_13  and  C9_16 
ROOT
ATOM      1  C1  NHT d           6.149 -12.038   4.239  0.00  0.00     0.114 C 
ATOM      2  C2  NHT d           7.592 -11.799   3.835  0.00  0.00     0.096 C 
ATOM      3  C3  NHT d           7.488 -10.685   2.759  0.00  0.00     0.087 C 
ATOM      4  C4  NHT d           6.411 -10.989   1.680  0.00  0.00     0.089 C 
ATOM      5  C5  NHT d           5.054 -11.105   2.359  0.00  0.00     0.087 C 
ATOM      6  C7  NHT d           7.457 -10.606   5.937  0.00  0.00     0.160 C 
ATOM      7  N2  NHT d           8.214 -11.114   4.992  0.00  0.00    -0.256 NA
ATOM      8  O5  NHT d           5.166 -12.204   3.228  0.00  0.00    -0.363 OA
ATOM      9  S1  NHT d           5.751 -11.033   5.670  0.00  0.00    -0.058 SA
ATOM     10  H1  NHT d           6.184 -13.053   4.661  0.00  0.00     0.104 H 
ATOM     11  H2  NHT d           8.125 -12.704   3.508  0.00  0.00     0.085 H 
ATOM     12  H3  NHT d           7.160  -9.780   3.292  0.00  0.00     0.090 H 
ATOM     13  H4  NHT d           6.667 -11.932   1.175  0.00  0.00     0.091 H 
ATOM     14  H5  NHT d           4.840 -10.177   2.909  0.00  0.00     0.090 H 
ENDROOT
BRANCH   6  15
ATOM     15  N1  NHT d           7.901  -9.927   6.975  0.00  0.00    -0.370 N 
ATOM     16  H13 NHT d           8.912  -9.752   7.074  0.00  0.00     0.161 HD
BRANCH  15  17
ATOM     17  C9  NHT d           6.978  -9.419   7.987  0.00  0.00    -0.009 C 
ATOM     18  H15 NHT d           6.328  -8.664   7.521  0.00  0.00     0.063 H 
ATOM     19  H16 NHT d           6.365 -10.255   8.354  0.00  0.00     0.063 H 
BRANCH  17  20
ATOM     20  C10 NHT d           7.684  -8.782   9.170  0.00  0.00    -0.061 C 
ATOM     21  H8  NHT d           6.941  -8.309   9.829  0.00  0.00     0.029 H 
ATOM     22  H9  NHT d           8.391  -8.021   8.809  0.00  0.00     0.029 H 
ATOM     23  H10 NHT d           8.232  -9.555   9.729  0.00  0.00     0.029 H 
ENDBRANCH  17  20
ENDBRANCH  15  17
ENDBRANCH   6  15
BRANCH   3  24
ATOM     24  O3  NHT d           8.735 -10.355   2.122  0.00  0.00    -0.391 OA
ATOM     25  H11 NHT d           8.576 -10.137   1.212  0.00  0.00     0.210 HD
ENDBRANCH   3  24
BRANCH   4  26
ATOM     26  O4  NHT d           6.289  -9.936   0.702  0.00  0.00    -0.390 OA
ATOM     27  H12 NHT d           5.441  -9.518   0.792  0.00  0.00     0.210 HD
ENDBRANCH   4  26
BRANCH   5  28
ATOM     28  C6  NHT d           3.876 -11.430   1.433  0.00  0.00     0.043 C 
ATOM     29  H6  NHT d           3.836 -10.696   0.616  0.00  0.00     0.078 H 
ATOM     30  H7  NHT d           2.937 -11.394   2.005  0.00  0.00     0.078 H 
BRANCH  28  31
ATOM     31  O6  NHT d           4.058 -12.737   0.894  0.00  0.00    -0.398 OA
ATOM     32  H14 NHT d           3.415 -13.326   1.271  0.00  0.00     0.209 HD
ENDBRANCH  28  31
ENDBRANCH   5  28
TORSDOF 7
ENDMDL
