MODEL 1
REMARK VINA RESULT:      -5.6      0.000      0.000
REMARK  5 active torsions:
REMARK  status: ('A' for Active; 'I' for Inactive)
REMARK    1  A    between atoms: S1_9  and  N1_1 
REMARK    2  A    between atoms: C5_5  and  O3_15 
REMARK    3  A    between atoms: O3_15  and  C8_6 
REMARK    4  A    between atoms: C8_6  and  C9_16 
REMARK    5  A    between atoms: C1_10  and  S1_9 
ROOT
ATOM      1  C2  EZL d          -3.655   3.690  15.383  0.00  0.00     0.076 A 
ATOM      2  C3  EZL d          -4.848   4.362  15.116  0.00  0.00     0.039 A 
ATOM      3  C4  EZL d          -4.806   5.631  14.481  0.00  0.00    -0.032 A 
ATOM      4  C5  EZL d          -3.455   6.037  14.220  0.00  0.00     0.070 A 
ATOM      5  C1  EZL d          -5.184   2.264  16.142  0.00  0.00     0.214 A 
ATOM      6  N2  EZL d          -3.875   2.483  16.035  0.00  0.00    -0.227 NA
ATOM      7  S2  EZL d          -6.178   3.473  15.565  0.00  0.00    -0.054 SA
ATOM      8  C6  EZL d          -2.230   5.412  14.490  0.00  0.00    -0.049 A 
ATOM      9  C7  EZL d          -2.319   4.133  15.137  0.00  0.00    -0.051 A 
ATOM     10  H3  EZL d          -5.681   6.218  14.225  0.00  0.00     0.090 H 
ATOM     11  H6  EZL d          -1.280   5.862  14.227  0.00  0.00     0.087 H 
ATOM     12  H7  EZL d          -1.446   3.553  15.415  0.00  0.00     0.087 H 
ENDROOT
BRANCH   4  13
ATOM     13  O3  EZL d          -3.362   7.263  13.549  0.00  0.00    -0.351 OA
BRANCH  13  14
ATOM     14  C8  EZL d          -2.145   8.116  13.605  0.00  0.00     0.023 C 
ATOM     15  H4  EZL d          -2.123   8.774  12.724  0.00  0.00     0.074 H 
ATOM     16  H5  EZL d          -1.253   7.473  13.604  0.00  0.00     0.074 H 
BRANCH  14  17
ATOM     17  C9  EZL d          -2.147   8.976  14.878  0.00  0.00    -0.056 C 
ATOM     18  H8  EZL d          -1.241   9.599  14.900  0.00  0.00     0.030 H 
ATOM     19  H9  EZL d          -2.165   8.322  15.762  0.00  0.00     0.030 H 
ATOM     20  H10 EZL d          -3.036   9.623  14.882  0.00  0.00     0.030 H 
ENDBRANCH  14  17
ENDBRANCH  13  14
ENDBRANCH   4  13
BRANCH   5  21
ATOM     21  S1  EZL d          -5.865   0.789  16.894  0.00  0.00     0.281 S 
ATOM     22  O1  EZL d          -5.517   0.909  18.277  0.00  0.00    -0.199 OA
ATOM     23  O2  EZL d          -7.266   0.881  16.596  0.00  0.00    -0.199 OA
BRANCH  21  24
ATOM     24  N1  EZL d          -5.157  -0.436  16.204  0.00  0.00    -0.323 N 
ATOM     25  H1  EZL d          -4.179  -0.593  16.345  0.00  0.00     0.169 HD
ATOM     26  H2  EZL d          -5.684  -1.057  15.624  0.00  0.00     0.169 HD
ENDBRANCH  21  24
ENDBRANCH   5  21
TORSDOF 5
ENDMDL
