MODEL 1
REMARK VINA RESULT:      -5.7      0.000      0.000
REMARK  5 active torsions:
REMARK  status: ('A' for Active; 'I' for Inactive)
REMARK    1  A    between atoms: S1_9  and  N1_1 
REMARK    2  A    between atoms: C5_5  and  O3_15 
REMARK    3  A    between atoms: O3_15  and  C8_6 
REMARK    4  A    between atoms: C8_6  and  C9_16 
REMARK    5  A    between atoms: C1_10  and  S1_9 
ROOT
ATOM      1  C2  EZL d          -3.446   3.738  15.312  0.00  0.00     0.076 A 
ATOM      2  C3  EZL d          -4.655   4.396  15.082  0.00  0.00     0.039 A 
ATOM      3  C4  EZL d          -4.643   5.703  14.530  0.00  0.00    -0.032 A 
ATOM      4  C5  EZL d          -3.301   6.158  14.302  0.00  0.00     0.070 A 
ATOM      5  C1  EZL d          -4.941   2.228  15.971  0.00  0.00     0.214 A 
ATOM      6  N2  EZL d          -3.637   2.487  15.885  0.00  0.00    -0.227 NA
ATOM      7  S2  EZL d          -5.963   3.446  15.468  0.00  0.00    -0.054 SA
ATOM      8  C6  EZL d          -2.063   5.548  14.537  0.00  0.00    -0.049 A 
ATOM      9  C7  EZL d          -2.121   4.230  15.101  0.00  0.00    -0.051 A 
ATOM     10  H3  EZL d          -5.532   6.283  14.308  0.00  0.00     0.090 H 
ATOM     11  H6  EZL d          -1.123   6.038  14.309  0.00  0.00     0.087 H 
ATOM     12  H7  EZL d          -1.235   3.655  15.347  0.00  0.00     0.087 H 
ENDROOT
BRANCH   4  13
ATOM     13  O3  EZL d          -3.238   7.427  13.711  0.00  0.00    -0.351 OA
BRANCH  13  14
ATOM     14  C8  EZL d          -2.036   8.297  13.810  0.00  0.00     0.023 C 
ATOM     15  H4  EZL d          -2.025   8.998  12.963  0.00  0.00     0.074 H 
ATOM     16  H5  EZL d          -1.132   7.670  13.779  0.00  0.00     0.074 H 
BRANCH  14  17
ATOM     17  C9  EZL d          -2.054   9.093  15.124  0.00  0.00    -0.056 C 
ATOM     18  H8  EZL d          -3.051   9.532  15.274  0.00  0.00     0.030 H 
ATOM     19  H9  EZL d          -1.303   9.896  15.076  0.00  0.00     0.030 H 
ATOM     20  H10 EZL d          -1.819   8.422  15.963  0.00  0.00     0.030 H 
ENDBRANCH  14  17
ENDBRANCH  13  14
ENDBRANCH   4  13
BRANCH   5  21
ATOM     21  S1  EZL d          -5.587   0.691  16.624  0.00  0.00     0.281 S 
ATOM     22  O1  EZL d          -5.248   0.733  18.015  0.00  0.00    -0.199 OA
ATOM     23  O2  EZL d          -6.988   0.767  16.324  0.00  0.00    -0.199 OA
BRANCH  21  24
ATOM     24  N1  EZL d          -4.843  -0.469  15.863  0.00  0.00    -0.323 N 
ATOM     25  H1  EZL d          -3.850  -0.435  15.747  0.00  0.00     0.169 HD
ATOM     26  H2  EZL d          -5.364  -1.240  15.495  0.00  0.00     0.169 HD
ENDBRANCH  21  24
ENDBRANCH   5  21
TORSDOF 5
ENDMDL
MODEL 2
REMARK VINA RESULT:      -5.1      3.091      6.633
REMARK  5 active torsions:
REMARK  status: ('A' for Active; 'I' for Inactive)
REMARK    1  A    between atoms: S1_9  and  N1_1 
REMARK    2  A    between atoms: C5_5  and  O3_15 
REMARK    3  A    between atoms: O3_15  and  C8_6 
REMARK    4  A    between atoms: C8_6  and  C9_16 
REMARK    5  A    between atoms: C1_10  and  S1_9 
ROOT
ATOM      1  C2  EZL d          -4.583   5.286  14.770  0.00  0.00     0.076 A 
ATOM      2  C3  EZL d          -3.605   4.293  14.844  0.00  0.00     0.039 A 
ATOM      3  C4  EZL d          -3.980   2.972  15.203  0.00  0.00    -0.032 A 
ATOM      4  C5  EZL d          -5.389   2.883  15.460  0.00  0.00     0.070 A 
ATOM      5  C1  EZL d          -2.739   6.390  14.195  0.00  0.00     0.214 A 
ATOM      6  N2  EZL d          -4.042   6.522  14.439  0.00  0.00    -0.227 NA
ATOM      7  S2  EZL d          -2.105   4.864  14.416  0.00  0.00    -0.054 SA
ATOM      8  C6  EZL d          -6.401   3.851  15.423  0.00  0.00    -0.049 A 
ATOM      9  C7  EZL d          -5.978   5.174  15.060  0.00  0.00    -0.051 A 
ATOM     10  H3  EZL d          -3.292   2.137  15.274  0.00  0.00     0.090 H 
ATOM     11  H6  EZL d          -7.434   3.617  15.652  0.00  0.00     0.087 H 
ATOM     12  H7  EZL d          -6.658   6.016  15.010  0.00  0.00     0.087 H 
ENDROOT
BRANCH   4  13
ATOM     13  O3  EZL d          -5.817   1.585  15.771  0.00  0.00    -0.351 OA
BRANCH  13  14
ATOM     14  C8  EZL d          -6.756   1.299  16.887  0.00  0.00     0.023 C 
ATOM     15  H4  EZL d          -7.699   0.910  16.476  0.00  0.00     0.074 H 
ATOM     16  H5  EZL d          -6.953   2.228  17.442  0.00  0.00     0.074 H 
BRANCH  14  17
ATOM     17  C9  EZL d          -6.155   0.258  17.844  0.00  0.00    -0.056 C 
ATOM     18  H8  EZL d          -6.960  -0.369  18.256  0.00  0.00     0.030 H 
ATOM     19  H9  EZL d          -5.633   0.772  18.664  0.00  0.00     0.030 H 
ATOM     20  H10 EZL d          -5.443  -0.376  17.296  0.00  0.00     0.030 H 
ENDBRANCH  14  17
ENDBRANCH  13  14
ENDBRANCH   4  13
BRANCH   5  21
ATOM     21  S1  EZL d          -1.699   7.761  13.701  0.00  0.00     0.281 S 
ATOM     22  O1  EZL d          -2.542   8.553  12.857  0.00  0.00    -0.199 OA
ATOM     23  O2  EZL d          -1.328   8.363  14.950  0.00  0.00    -0.199 OA
BRANCH  21  24
ATOM     24  N1  EZL d          -0.482   7.141  12.917  0.00  0.00    -0.323 N 
ATOM     25  H1  EZL d          -0.193   7.541  12.046  0.00  0.00     0.169 HD
ATOM     26  H2  EZL d           0.002   6.349  13.289  0.00  0.00     0.169 HD
ENDBRANCH  21  24
ENDBRANCH   5  21
TORSDOF 5
ENDMDL
MODEL 3
REMARK VINA RESULT:      -5.1      3.103      6.522
REMARK  5 active torsions:
REMARK  status: ('A' for Active; 'I' for Inactive)
REMARK    1  A    between atoms: S1_9  and  N1_1 
REMARK    2  A    between atoms: C5_5  and  O3_15 
REMARK    3  A    between atoms: O3_15  and  C8_6 
REMARK    4  A    between atoms: C8_6  and  C9_16 
REMARK    5  A    between atoms: C1_10  and  S1_9 
ROOT
ATOM      1  C2  EZL d          -4.660   5.031  14.628  0.00  0.00     0.076 A 
ATOM      2  C3  EZL d          -3.650   4.105  14.892  0.00  0.00     0.039 A 
ATOM      3  C4  EZL d          -4.000   2.788  15.292  0.00  0.00    -0.032 A 
ATOM      4  C5  EZL d          -5.424   2.632  15.375  0.00  0.00     0.070 A 
ATOM      5  C1  EZL d          -2.817   6.206  14.214  0.00  0.00     0.214 A 
ATOM      6  N2  EZL d          -4.145   6.275  14.282  0.00  0.00    -0.227 NA
ATOM      7  S2  EZL d          -2.138   4.737  14.618  0.00  0.00    -0.054 SA
ATOM      8  C6  EZL d          -6.471   3.533  15.144  0.00  0.00    -0.049 A 
ATOM      9  C7  EZL d          -6.073   4.854  14.747  0.00  0.00    -0.051 A 
ATOM     10  H3  EZL d          -3.284   2.003  15.507  0.00  0.00     0.090 H 
ATOM     11  H6  EZL d          -7.512   3.252  15.258  0.00  0.00     0.087 H 
ATOM     12  H7  EZL d          -6.784   5.649  14.554  0.00  0.00     0.087 H 
ENDROOT
BRANCH   4  13
ATOM     13  O3  EZL d          -5.821   1.333  15.719  0.00  0.00    -0.351 OA
BRANCH  13  14
ATOM     14  C8  EZL d          -5.605   0.763  17.075  0.00  0.00     0.023 C 
ATOM     15  H4  EZL d          -4.579   0.987  17.403  0.00  0.00     0.074 H 
ATOM     16  H5  EZL d          -5.746  -0.327  17.036  0.00  0.00     0.074 H 
BRANCH  14  17
ATOM     17  C9  EZL d          -6.599   1.365  18.079  0.00  0.00    -0.056 C 
ATOM     18  H8  EZL d          -6.123   2.205  18.608  0.00  0.00     0.030 H 
ATOM     19  H9  EZL d          -6.898   0.596  18.806  0.00  0.00     0.030 H 
ATOM     20  H10 EZL d          -7.488   1.727  17.543  0.00  0.00     0.030 H 
ENDBRANCH  14  17
ENDBRANCH  13  14
ENDBRANCH   4  13
BRANCH   5  21
ATOM     21  S1  EZL d          -1.793   7.603  13.760  0.00  0.00     0.281 S 
ATOM     22  O1  EZL d          -1.564   8.285  14.998  0.00  0.00    -0.199 OA
ATOM     23  O2  EZL d          -0.638   6.989  13.168  0.00  0.00    -0.199 OA
BRANCH  21  24
ATOM     24  N1  EZL d          -2.634   8.467  12.748  0.00  0.00    -0.323 N 
ATOM     25  H1  EZL d          -2.413   9.433  12.612  0.00  0.00     0.169 HD
ATOM     26  H2  EZL d          -3.388   8.050  12.241  0.00  0.00     0.169 HD
ENDBRANCH  21  24
ENDBRANCH   5  21
TORSDOF 5
ENDMDL
MODEL 4
REMARK VINA RESULT:      -5.1      1.749      2.193
REMARK  5 active torsions:
REMARK  status: ('A' for Active; 'I' for Inactive)
REMARK    1  A    between atoms: S1_9  and  N1_1 
REMARK    2  A    between atoms: C5_5  and  O3_15 
REMARK    3  A    between atoms: O3_15  and  C8_6 
REMARK    4  A    between atoms: C8_6  and  C9_16 
REMARK    5  A    between atoms: C1_10  and  S1_9 
ROOT
ATOM      1  C2  EZL d          -4.268   4.746  13.612  0.00  0.00     0.076 A 
ATOM      2  C3  EZL d          -3.106   4.965  14.353  0.00  0.00     0.039 A 
ATOM      3  C4  EZL d          -2.404   6.189  14.201  0.00  0.00    -0.032 A 
ATOM      4  C5  EZL d          -3.043   7.039  13.237  0.00  0.00     0.070 A 
ATOM      5  C1  EZL d          -4.106   2.877  14.808  0.00  0.00     0.214 A 
ATOM      6  N2  EZL d          -4.810   3.490  13.857  0.00  0.00    -0.227 NA
ATOM      7  S2  EZL d          -2.774   3.701  15.379  0.00  0.00    -0.054 SA
ATOM      8  C6  EZL d          -4.191   6.854  12.455  0.00  0.00    -0.049 A 
ATOM      9  C7  EZL d          -4.867   5.601  12.637  0.00  0.00    -0.051 A 
ATOM     10  H3  EZL d          -1.501   6.449  14.742  0.00  0.00     0.090 H 
ATOM     11  H6  EZL d          -4.544   7.607  11.760  0.00  0.00     0.087 H 
ATOM     12  H7  EZL d          -5.757   5.327  12.081  0.00  0.00     0.087 H 
ENDROOT
BRANCH   4  13
ATOM     13  O3  EZL d          -2.414   8.282  13.087  0.00  0.00    -0.351 OA
BRANCH  13  14
ATOM     14  C8  EZL d          -1.243   8.690  13.907  0.00  0.00     0.023 C 
ATOM     15  H4  EZL d          -0.538   9.253  13.278  0.00  0.00     0.074 H 
ATOM     16  H5  EZL d          -0.745   7.791  14.300  0.00  0.00     0.074 H 
BRANCH  14  17
ATOM     17  C9  EZL d          -1.688   9.575  15.082  0.00  0.00    -0.056 C 
ATOM     18  H8  EZL d          -2.634   9.191  15.492  0.00  0.00     0.030 H 
ATOM     19  H9  EZL d          -1.833  10.606  14.729  0.00  0.00     0.030 H 
ATOM     20  H10 EZL d          -0.917   9.560  15.865  0.00  0.00     0.030 H 
ENDBRANCH  14  17
ENDBRANCH  13  14
ENDBRANCH   4  13
BRANCH   5  21
ATOM     21  S1  EZL d          -4.519   1.248  15.425  0.00  0.00     0.281 S 
ATOM     22  O1  EZL d          -3.562   1.015  16.465  0.00  0.00    -0.199 OA
ATOM     23  O2  EZL d          -5.881   1.391  15.855  0.00  0.00    -0.199 OA
BRANCH  21  24
ATOM     24  N1  EZL d          -4.343   0.252  14.218  0.00  0.00    -0.323 N 
ATOM     25  H1  EZL d          -4.777   0.450  13.339  0.00  0.00     0.169 HD
ATOM     26  H2  EZL d          -3.797  -0.579  14.331  0.00  0.00     0.169 HD
ENDBRANCH  21  24
ENDBRANCH   5  21
TORSDOF 5
ENDMDL
MODEL 5
REMARK VINA RESULT:      -5.0      1.815      2.106
REMARK  5 active torsions:
REMARK  status: ('A' for Active; 'I' for Inactive)
REMARK    1  A    between atoms: S1_9  and  N1_1 
REMARK    2  A    between atoms: C5_5  and  O3_15 
REMARK    3  A    between atoms: O3_15  and  C8_6 
REMARK    4  A    between atoms: C8_6  and  C9_16 
REMARK    5  A    between atoms: C1_10  and  S1_9 
ROOT
ATOM      1  C2  EZL d          -3.944   4.615  14.550  0.00  0.00     0.076 A 
ATOM      2  C3  EZL d          -4.150   4.256  13.217  0.00  0.00     0.039 A 
ATOM      3  C4  EZL d          -4.044   5.245  12.205  0.00  0.00    -0.032 A 
ATOM      4  C5  EZL d          -3.738   6.530  12.765  0.00  0.00     0.070 A 
ATOM      5  C1  EZL d          -4.347   2.432  14.702  0.00  0.00     0.214 A 
ATOM      6  N2  EZL d          -4.118   3.537  15.410  0.00  0.00    -0.227 NA
ATOM      7  S2  EZL d          -4.441   2.628  13.048  0.00  0.00    -0.054 SA
ATOM      8  C6  EZL d          -3.547   6.943  14.090  0.00  0.00    -0.049 A 
ATOM      9  C7  EZL d          -3.668   5.912  15.081  0.00  0.00    -0.051 A 
ATOM     10  H3  EZL d          -4.176   5.055  11.146  0.00  0.00     0.090 H 
ATOM     11  H6  EZL d          -3.322   7.971  14.350  0.00  0.00     0.087 H 
ATOM     12  H7  EZL d          -3.560   6.102  16.143  0.00  0.00     0.087 H 
ENDROOT
BRANCH   4  13
ATOM     13  O3  EZL d          -3.574   7.533  11.800  0.00  0.00    -0.351 OA
BRANCH  13  14
ATOM     14  C8  EZL d          -2.342   8.361  11.707  0.00  0.00     0.023 C 
ATOM     15  H4  EZL d          -2.299   9.042  12.569  0.00  0.00     0.074 H 
ATOM     16  H5  EZL d          -2.370   8.947  10.777  0.00  0.00     0.074 H 
BRANCH  14  17
ATOM     17  C9  EZL d          -1.092   7.468  11.705  0.00  0.00    -0.056 C 
ATOM     18  H8  EZL d          -0.751   7.317  10.670  0.00  0.00     0.030 H 
ATOM     19  H9  EZL d          -1.334   6.496  12.157  0.00  0.00     0.030 H 
ATOM     20  H10 EZL d          -0.294   7.954  12.285  0.00  0.00     0.030 H 
ENDBRANCH  14  17
ENDBRANCH  13  14
ENDBRANCH   4  13
BRANCH   5  21
ATOM     21  S1  EZL d          -4.587   0.826  15.456  0.00  0.00     0.281 S 
ATOM     22  O1  EZL d          -3.591   0.771  16.483  0.00  0.00    -0.199 OA
ATOM     23  O2  EZL d          -5.947   0.873  15.912  0.00  0.00    -0.199 OA
BRANCH  21  24
ATOM     24  N1  EZL d          -4.340  -0.243  14.326  0.00  0.00    -0.323 N 
ATOM     25  H1  EZL d          -3.973   0.041  13.441  0.00  0.00     0.169 HD
ATOM     26  H2  EZL d          -4.549  -1.206  14.496  0.00  0.00     0.169 HD
ENDBRANCH  21  24
ENDBRANCH   5  21
TORSDOF 5
ENDMDL
MODEL 6
REMARK VINA RESULT:      -4.6      3.264      6.497
REMARK  5 active torsions:
REMARK  status: ('A' for Active; 'I' for Inactive)
REMARK    1  A    between atoms: S1_9  and  N1_1 
REMARK    2  A    between atoms: C5_5  and  O3_15 
REMARK    3  A    between atoms: O3_15  and  C8_6 
REMARK    4  A    between atoms: C8_6  and  C9_16 
REMARK    5  A    between atoms: C1_10  and  S1_9 
ROOT
ATOM      1  C2  EZL d          -3.156   4.649  14.580  0.00  0.00     0.076 A 
ATOM      2  C3  EZL d          -4.340   5.127  14.018  0.00  0.00     0.039 A 
ATOM      3  C4  EZL d          -5.568   4.487  14.331  0.00  0.00    -0.032 A 
ATOM      4  C5  EZL d          -5.364   3.378  15.218  0.00  0.00     0.070 A 
ATOM      5  C1  EZL d          -2.445   6.377  13.372  0.00  0.00     0.214 A 
ATOM      6  N2  EZL d          -2.048   5.366  14.144  0.00  0.00    -0.227 NA
ATOM      7  S2  EZL d          -4.084   6.472  13.076  0.00  0.00    -0.054 SA
ATOM      8  C6  EZL d          -4.199   2.848  15.787  0.00  0.00    -0.049 A 
ATOM      9  C7  EZL d          -2.980   3.522  15.440  0.00  0.00    -0.051 A 
ATOM     10  H3  EZL d          -6.534   4.797  13.951  0.00  0.00     0.090 H 
ATOM     11  H6  EZL d          -4.216   1.987  16.446  0.00  0.00     0.087 H 
ATOM     12  H7  EZL d          -2.008   3.202  15.799  0.00  0.00     0.087 H 
ENDROOT
BRANCH   4  13
ATOM     13  O3  EZL d          -6.554   2.743  15.597  0.00  0.00    -0.351 OA
BRANCH  13  14
ATOM     14  C8  EZL d          -6.866   2.405  17.011  0.00  0.00     0.023 C 
ATOM     15  H4  EZL d          -7.801   2.904  17.304  0.00  0.00     0.074 H 
ATOM     16  H5  EZL d          -6.046   2.756  17.655  0.00  0.00     0.074 H 
BRANCH  14  17
ATOM     17  C9  EZL d          -7.028   0.887  17.180  0.00  0.00    -0.056 C 
ATOM     18  H8  EZL d          -6.620   0.374  16.297  0.00  0.00     0.030 H 
ATOM     19  H9  EZL d          -8.095   0.642  17.287  0.00  0.00     0.030 H 
ATOM     20  H10 EZL d          -6.485   0.558  18.078  0.00  0.00     0.030 H 
ENDBRANCH  14  17
ENDBRANCH  13  14
ENDBRANCH   4  13
BRANCH   5  21
ATOM     21  S1  EZL d          -1.306   7.552  12.647  0.00  0.00     0.281 S 
ATOM     22  O1  EZL d          -0.281   6.736  12.071  0.00  0.00    -0.199 OA
ATOM     23  O2  EZL d          -2.123   8.273  11.713  0.00  0.00    -0.199 OA
BRANCH  21  24
ATOM     24  N1  EZL d          -0.767   8.444  13.828  0.00  0.00    -0.323 N 
ATOM     25  H1  EZL d          -1.373   8.692  14.584  0.00  0.00     0.169 HD
ATOM     26  H2  EZL d           0.181   8.761  13.822  0.00  0.00     0.169 HD
ENDBRANCH  21  24
ENDBRANCH   5  21
TORSDOF 5
ENDMDL
MODEL 7
REMARK VINA RESULT:      -4.5      3.018      6.419
REMARK  5 active torsions:
REMARK  status: ('A' for Active; 'I' for Inactive)
REMARK    1  A    between atoms: S1_9  and  N1_1 
REMARK    2  A    between atoms: C5_5  and  O3_15 
REMARK    3  A    between atoms: O3_15  and  C8_6 
REMARK    4  A    between atoms: C8_6  and  C9_16 
REMARK    5  A    between atoms: C1_10  and  S1_9 
ROOT
ATOM      1  C2  EZL d          -4.016   3.418  13.617  0.00  0.00     0.076 A 
ATOM      2  C3  EZL d          -3.665   3.787  14.916  0.00  0.00     0.039 A 
ATOM      3  C4  EZL d          -3.829   2.855  15.973  0.00  0.00    -0.032 A 
ATOM      4  C5  EZL d          -4.377   1.618  15.495  0.00  0.00     0.070 A 
ATOM      5  C1  EZL d          -3.268   5.494  13.335  0.00  0.00     0.214 A 
ATOM      6  N2  EZL d          -3.824   4.456  12.713  0.00  0.00    -0.227 NA
ATOM      7  S2  EZL d          -3.028   5.321  14.976  0.00  0.00    -0.054 SA
ATOM      8  C6  EZL d          -4.766   1.211  14.213  0.00  0.00    -0.049 A 
ATOM      9  C7  EZL d          -4.588   2.186  13.174  0.00  0.00    -0.051 A 
ATOM     10  H3  EZL d          -3.573   3.051  17.008  0.00  0.00     0.090 H 
ATOM     11  H6  EZL d          -5.174   0.225  14.017  0.00  0.00     0.087 H 
ATOM     12  H7  EZL d          -4.864   2.002  12.142  0.00  0.00     0.087 H 
ENDROOT
BRANCH   4  13
ATOM     13  O3  EZL d          -4.512   0.646  16.496  0.00  0.00    -0.351 OA
BRANCH  13  14
ATOM     14  C8  EZL d          -5.799   0.391  17.195  0.00  0.00     0.023 C 
ATOM     15  H4  EZL d          -5.599   0.177  18.255  0.00  0.00     0.074 H 
ATOM     16  H5  EZL d          -6.297  -0.474  16.734  0.00  0.00     0.074 H 
BRANCH  14  17
ATOM     17  C9  EZL d          -6.720   1.617  17.094  0.00  0.00    -0.056 C 
ATOM     18  H8  EZL d          -7.349   1.529  16.195  0.00  0.00     0.030 H 
ATOM     19  H9  EZL d          -6.110   2.530  17.027  0.00  0.00     0.030 H 
ATOM     20  H10 EZL d          -7.362   1.669  17.985  0.00  0.00     0.030 H 
ENDBRANCH  14  17
ENDBRANCH  13  14
ENDBRANCH   4  13
BRANCH   5  21
ATOM     21  S1  EZL d          -2.833   7.013  12.493  0.00  0.00     0.281 S 
ATOM     22  O1  EZL d          -1.690   6.661  11.705  0.00  0.00    -0.199 OA
ATOM     23  O2  EZL d          -4.021   7.335  11.754  0.00  0.00    -0.199 OA
BRANCH  21  24
ATOM     24  N1  EZL d          -2.485   8.064  13.613  0.00  0.00    -0.323 N 
ATOM     25  H1  EZL d          -3.161   8.288  14.315  0.00  0.00     0.169 HD
ATOM     26  H2  EZL d          -1.589   8.508  13.621  0.00  0.00     0.169 HD
ENDBRANCH  21  24
ENDBRANCH   5  21
TORSDOF 5
ENDMDL
MODEL 8
REMARK VINA RESULT:      -4.3      2.156      2.862
REMARK  5 active torsions:
REMARK  status: ('A' for Active; 'I' for Inactive)
REMARK    1  A    between atoms: S1_9  and  N1_1 
REMARK    2  A    between atoms: C5_5  and  O3_15 
REMARK    3  A    between atoms: O3_15  and  C8_6 
REMARK    4  A    between atoms: C8_6  and  C9_16 
REMARK    5  A    between atoms: C1_10  and  S1_9 
ROOT
ATOM      1  C2  EZL d          -3.263   5.683  14.956  0.00  0.00     0.076 A 
ATOM      2  C3  EZL d          -2.613   5.326  13.774  0.00  0.00     0.039 A 
ATOM      3  C4  EZL d          -1.828   6.292  13.091  0.00  0.00    -0.032 A 
ATOM      4  C5  EZL d          -1.854   7.556  13.770  0.00  0.00     0.070 A 
ATOM      5  C1  EZL d          -3.822   3.541  14.735  0.00  0.00     0.214 A 
ATOM      6  N2  EZL d          -4.011   4.633  15.474  0.00  0.00    -0.227 NA
ATOM      7  S2  EZL d          -2.845   3.725  13.395  0.00  0.00    -0.054 SA
ATOM      8  C6  EZL d          -2.507   7.968  14.939  0.00  0.00    -0.049 A 
ATOM      9  C7  EZL d          -3.293   6.961  15.595  0.00  0.00    -0.051 A 
ATOM     10  H3  EZL d          -1.281   6.101  12.176  0.00  0.00     0.090 H 
ATOM     11  H6  EZL d          -2.424   8.978  15.323  0.00  0.00     0.087 H 
ATOM     12  H7  EZL d          -3.861   7.154  16.498  0.00  0.00     0.087 H 
ENDROOT
BRANCH   4  13
ATOM     13  O3  EZL d          -1.053   8.531  13.161  0.00  0.00    -0.351 OA
BRANCH  13  14
ATOM     14  C8  EZL d          -1.361   9.096  11.821  0.00  0.00     0.023 C 
ATOM     15  H4  EZL d          -1.203   8.322  11.056  0.00  0.00     0.074 H 
ATOM     16  H5  EZL d          -0.693   9.947  11.625  0.00  0.00     0.074 H 
BRANCH  14  17
ATOM     17  C9  EZL d          -2.820   9.575  11.760  0.00  0.00    -0.056 C 
ATOM     18  H8  EZL d          -2.905  10.554  12.254  0.00  0.00     0.030 H 
ATOM     19  H9  EZL d          -3.466   8.847  12.273  0.00  0.00     0.030 H 
ATOM     20  H10 EZL d          -3.132   9.666  10.710  0.00  0.00     0.030 H 
ENDBRANCH  14  17
ENDBRANCH  13  14
ENDBRANCH   4  13
BRANCH   5  21
ATOM     21  S1  EZL d          -4.590   1.968  15.109  0.00  0.00     0.281 S 
ATOM     22  O1  EZL d          -4.694   1.319  13.836  0.00  0.00    -0.199 OA
ATOM     23  O2  EZL d          -3.679   1.366  16.040  0.00  0.00    -0.199 OA
BRANCH  21  24
ATOM     24  N1  EZL d          -6.000   2.293  15.730  0.00  0.00    -0.323 N 
ATOM     25  H1  EZL d          -6.070   2.592  16.682  0.00  0.00     0.169 HD
ATOM     26  H2  EZL d          -6.825   2.200  15.173  0.00  0.00     0.169 HD
ENDBRANCH  21  24
ENDBRANCH   5  21
TORSDOF 5
ENDMDL
MODEL 9
REMARK VINA RESULT:      -4.3      3.851      6.717
REMARK  5 active torsions:
REMARK  status: ('A' for Active; 'I' for Inactive)
REMARK    1  A    between atoms: S1_9  and  N1_1 
REMARK    2  A    between atoms: C5_5  and  O3_15 
REMARK    3  A    between atoms: O3_15  and  C8_6 
REMARK    4  A    between atoms: C8_6  and  C9_16 
REMARK    5  A    between atoms: C1_10  and  S1_9 
ROOT
ATOM      1  C2  EZL d          -3.186   5.167  14.484  0.00  0.00     0.076 A 
ATOM      2  C3  EZL d          -3.599   5.182  13.151  0.00  0.00     0.039 A 
ATOM      3  C4  EZL d          -4.311   4.070  12.629  0.00  0.00    -0.032 A 
ATOM      4  C5  EZL d          -4.482   3.050  13.623  0.00  0.00     0.070 A 
ATOM      5  C1  EZL d          -2.467   7.153  13.786  0.00  0.00     0.214 A 
ATOM      6  N2  EZL d          -2.477   6.313  14.820  0.00  0.00    -0.227 NA
ATOM      7  S2  EZL d          -3.206   6.608  12.394  0.00  0.00    -0.054 SA
ATOM      8  C6  EZL d          -4.068   2.979  14.959  0.00  0.00    -0.049 A 
ATOM      9  C7  EZL d          -3.347   4.121  15.444  0.00  0.00    -0.051 A 
ATOM     10  H3  EZL d          -4.679   4.001  11.612  0.00  0.00     0.090 H 
ATOM     11  H6  EZL d          -4.278   2.119  15.586  0.00  0.00     0.087 H 
ATOM     12  H7  EZL d          -2.957   4.186  16.454  0.00  0.00     0.087 H 
ENDROOT
BRANCH   4  13
ATOM     13  O3  EZL d          -5.224   1.951  13.170  0.00  0.00    -0.351 OA
BRANCH  13  14
ATOM     14  C8  EZL d          -4.727   1.032  12.112  0.00  0.00     0.023 C 
ATOM     15  H4  EZL d          -3.919   1.526  11.554  0.00  0.00     0.074 H 
ATOM     16  H5  EZL d          -5.552   0.791  11.426  0.00  0.00     0.074 H 
BRANCH  14  17
ATOM     17  C9  EZL d          -4.191  -0.267  12.733  0.00  0.00    -0.056 C 
ATOM     18  H8  EZL d          -4.140  -0.157  13.826  0.00  0.00     0.030 H 
ATOM     19  H9  EZL d          -3.185  -0.474  12.338  0.00  0.00     0.030 H 
ATOM     20  H10 EZL d          -4.863  -1.100  12.479  0.00  0.00     0.030 H 
ENDBRANCH  14  17
ENDBRANCH  13  14
ENDBRANCH   4  13
BRANCH   5  21
ATOM     21  S1  EZL d          -1.679   8.759  13.846  0.00  0.00     0.281 S 
ATOM     22  O1  EZL d          -2.105   9.311  15.096  0.00  0.00    -0.199 OA
ATOM     23  O2  EZL d          -0.282   8.447  13.749  0.00  0.00    -0.199 OA
BRANCH  21  24
ATOM     24  N1  EZL d          -2.227   9.575  12.615  0.00  0.00    -0.323 N 
ATOM     25  H1  EZL d          -3.100   9.323  12.197  0.00  0.00     0.169 HD
ATOM     26  H2  EZL d          -1.702  10.345  12.252  0.00  0.00     0.169 HD
ENDBRANCH  21  24
ENDBRANCH   5  21
TORSDOF 5
ENDMDL
MODEL 10
REMARK VINA RESULT:      -3.5      3.717      6.751
REMARK  5 active torsions:
REMARK  status: ('A' for Active; 'I' for Inactive)
REMARK    1  A    between atoms: S1_9  and  N1_1 
REMARK    2  A    between atoms: C5_5  and  O3_15 
REMARK    3  A    between atoms: O3_15  and  C8_6 
REMARK    4  A    between atoms: C8_6  and  C9_16 
REMARK    5  A    between atoms: C1_10  and  S1_9 
ROOT
ATOM      1  C2  EZL d          -2.500   5.148  12.767  0.00  0.00     0.076 A 
ATOM      2  C3  EZL d          -3.294   5.075  13.912  0.00  0.00     0.039 A 
ATOM      3  C4  EZL d          -3.954   3.858  14.225  0.00  0.00    -0.032 A 
ATOM      4  C5  EZL d          -3.686   2.852  13.238  0.00  0.00     0.070 A 
ATOM      5  C1  EZL d          -2.278   7.186  13.630  0.00  0.00     0.214 A 
ATOM      6  N2  EZL d          -1.956   6.414  12.593  0.00  0.00    -0.227 NA
ATOM      7  S2  EZL d          -3.270   6.493  14.778  0.00  0.00    -0.054 SA
ATOM      8  C6  EZL d          -2.920   2.885  12.066  0.00  0.00    -0.049 A 
ATOM      9  C7  EZL d          -2.274   4.135  11.784  0.00  0.00    -0.051 A 
ATOM     10  H3  EZL d          -4.580   3.708  15.098  0.00  0.00     0.090 H 
ATOM     11  H6  EZL d          -2.821   2.024  11.415  0.00  0.00     0.087 H 
ATOM     12  H7  EZL d          -1.666   4.298  10.901  0.00  0.00     0.087 H 
ENDROOT
BRANCH   4  13
ATOM     13  O3  EZL d          -4.278   1.616  13.529  0.00  0.00    -0.351 OA
BRANCH  13  14
ATOM     14  C8  EZL d          -4.972   1.344  14.815  0.00  0.00     0.023 C 
ATOM     15  H4  EZL d          -6.022   1.087  14.612  0.00  0.00     0.074 H 
ATOM     16  H5  EZL d          -4.930   2.244  15.446  0.00  0.00     0.074 H 
BRANCH  14  17
ATOM     17  C9  EZL d          -4.301   0.176  15.554  0.00  0.00    -0.056 C 
ATOM     18  H8  EZL d          -3.414  -0.152  14.993  0.00  0.00     0.030 H 
ATOM     19  H9  EZL d          -5.011  -0.659  15.641  0.00  0.00     0.030 H 
ATOM     20  H10 EZL d          -3.998   0.504  16.559  0.00  0.00     0.030 H 
ENDBRANCH  14  17
ENDBRANCH  13  14
ENDBRANCH   4  13
BRANCH   5  21
ATOM     21  S1  EZL d          -1.730   8.883  13.787  0.00  0.00     0.281 S 
ATOM     22  O1  EZL d          -0.302   8.784  13.852  0.00  0.00    -0.199 OA
ATOM     23  O2  EZL d          -2.254   9.512  12.608  0.00  0.00    -0.199 OA
BRANCH  21  24
ATOM     24  N1  EZL d          -2.352   9.436  15.123  0.00  0.00    -0.323 N 
ATOM     25  H1  EZL d          -1.774   9.916  15.783  0.00  0.00     0.169 HD
ATOM     26  H2  EZL d          -3.326   9.306  15.312  0.00  0.00     0.169 HD
ENDBRANCH  21  24
ENDBRANCH   5  21
TORSDOF 5
ENDMDL
