MODEL 1
REMARK VINA RESULT:      -7.5      0.000      0.000
REMARK  13 active torsions:
REMARK  status: ('A' for Active; 'I' for Inactive)
REMARK    1  A    between atoms: CA_2  and  N_1 
REMARK    2  A    between atoms: P_3  and  CA_2 
REMARK    3  A    between atoms: CA_2  and  CB_6 
REMARK    4  A    between atoms: CM_13  and  P_3 
REMARK    5  A    between atoms: CB_6  and  CG_7 
REMARK    6  A    between atoms: CA_14  and  CM_13 
REMARK    7  A    between atoms: CA_14  and  CB_15 
REMARK    8  A    between atoms: C_22  and  CA_14 
REMARK    9  A    between atoms: CB_15  and  CG_16 
REMARK       I    between atoms: C_22  and  N_24 
REMARK   10  A    between atoms: N_24  and  CA_25 
REMARK   11  A    between atoms: CA_25  and  CB_28 
REMARK   12  A    between atoms: CA_25  and  C_26 
REMARK   13  A    between atoms: CB_28  and  CG_29 
ROOT
ATOM      1  CA  MOL d          37.752  40.301  -3.942  0.00  0.00     0.036 C 
ATOM      2  H14 MOL d          37.451  39.637  -3.118  0.00  0.00     0.056 H 
ENDROOT
BRANCH   1   3
ATOM      3  CM  MOL d          38.965  39.638  -4.624  0.00  0.00     0.021 C 
ATOM      4  H12 MOL d          38.945  39.918  -5.688  0.00  0.00     0.050 H 
ATOM      5  H13 MOL d          39.875  40.041  -4.156  0.00  0.00     0.050 H 
BRANCH   3   6
ATOM      6  P   MOL d          39.042  37.883  -4.531  0.00  0.00     0.138 P 
ATOM      7  O1P MOL d          39.634  37.315  -5.786  0.00  0.00    -0.666 OA
ATOM      8  O2P MOL d          37.708  37.271  -4.369  0.00  0.00    -0.666 OA
BRANCH   6   9
ATOM      9  CA  MOL d          39.957  37.744  -3.083  0.00  0.00     0.177 C 
ATOM     10  H4  MOL d          40.420  36.749  -3.151  0.00  0.00     0.101 H 
BRANCH   9  11
ATOM     11  N   MOL d          41.021  38.773  -3.050  0.00  0.00    -0.065 N 
ATOM     12  H1  MOL d          41.922  38.328  -3.127  0.00  0.00     0.275 HD
ATOM     13  H2  MOL d          40.971  39.280  -2.180  0.00  0.00     0.275 HD
ATOM     14  H3  MOL d          40.895  39.412  -3.819  0.00  0.00     0.275 HD
ENDBRANCH   9  11
BRANCH   9  15
ATOM     15  CB  MOL d          39.430  37.848  -1.713  0.00  0.00    -0.005 C 
ATOM     16  H5  MOL d          38.428  38.298  -1.758  0.00  0.00     0.044 H 
ATOM     17  H6  MOL d          40.099  38.498  -1.130  0.00  0.00     0.044 H 
BRANCH  15  18
ATOM     18  CG  MOL d          39.325  36.502  -1.002  0.00  0.00    -0.056 A 
ATOM     19  CD1 MOL d          38.195  35.711  -1.254  0.00  0.00    -0.077 A 
ATOM     20  CE1 MOL d          38.137  34.494  -0.568  0.00  0.00    -0.082 A 
ATOM     21  H7  MOL d          37.414  36.024  -1.937  0.00  0.00     0.084 H 
ATOM     22  CZ  MOL d          39.137  34.067   0.293  0.00  0.00    -0.083 A 
ATOM     23  H9  MOL d          37.273  33.855  -0.717  0.00  0.00     0.083 H 
ATOM     24  CE2 MOL d          40.216  34.905   0.491  0.00  0.00    -0.082 A 
ATOM     25  H11 MOL d          39.073  33.109   0.794  0.00  0.00     0.083 H 
ATOM     26  CD2 MOL d          40.290  36.090  -0.108  0.00  0.00    -0.077 A 
ATOM     27  H10 MOL d          41.019  34.590   1.148  0.00  0.00     0.083 H 
ATOM     28  H8  MOL d          41.126  36.744   0.110  0.00  0.00     0.084 H 
ENDBRANCH  15  18
ENDBRANCH   9  15
ENDBRANCH   6   9
ENDBRANCH   3   6
ENDBRANCH   1   3
BRANCH   1  29
ATOM     29  CB  MOL d          38.186  41.641  -3.323  0.00  0.00    -0.029 C 
ATOM     30  H15 MOL d          37.787  42.449  -3.954  0.00  0.00     0.041 H 
ATOM     31  H16 MOL d          39.285  41.676  -3.332  0.00  0.00     0.041 H 
BRANCH  29  32
ATOM     32  CG  MOL d          37.726  41.892  -1.904  0.00  0.00    -0.057 A 
ATOM     33  CD1 MOL d          37.876  43.136  -1.310  0.00  0.00    -0.077 A 
ATOM     34  CE1 MOL d          37.464  43.367  -0.013  0.00  0.00    -0.082 A 
ATOM     35  H17 MOL d          38.326  43.944  -1.876  0.00  0.00     0.084 H 
ATOM     36  CZ  MOL d          36.883  42.333   0.697  0.00  0.00    -0.083 A 
ATOM     37  H19 MOL d          37.594  44.343   0.442  0.00  0.00     0.083 H 
ATOM     38  CE2 MOL d          36.729  41.085   0.117  0.00  0.00    -0.082 A 
ATOM     39  H21 MOL d          36.547  42.500   1.714  0.00  0.00     0.083 H 
ATOM     40  CD2 MOL d          37.118  40.872  -1.191  0.00  0.00    -0.077 A 
ATOM     41  H20 MOL d          36.302  40.272   0.692  0.00  0.00     0.083 H 
ATOM     42  H18 MOL d          36.949  39.909  -1.658  0.00  0.00     0.084 H 
ENDBRANCH  29  32
ENDBRANCH   1  29
BRANCH   1  43
ATOM     43  C   MOL d          36.513  40.477  -4.829  0.00  0.00     0.223 C 
ATOM     44  O   MOL d          35.753  41.437  -4.742  0.00  0.00    -0.273 OA
ATOM     45  N   MOL d          36.339  39.524  -5.714  0.00  0.00    -0.346 N 
ATOM     46  H22 MOL d          37.068  38.841  -5.703  0.00  0.00     0.163 HD
BRANCH  45  47
ATOM     47  CA  MOL d          35.317  39.250  -6.702  0.00  0.00     0.100 C 
ATOM     48  H23 MOL d          34.319  39.275  -6.243  0.00  0.00     0.090 H 
BRANCH  47  49
ATOM     49  CB  MOL d          35.414  40.316  -7.757  0.00  0.00    -0.013 C 
ATOM     50  H24 MOL d          36.005  39.867  -8.569  0.00  0.00     0.043 H 
ATOM     51  H25 MOL d          35.989  41.130  -7.293  0.00  0.00     0.043 H 
BRANCH  49  52
ATOM     52  CG  MOL d          34.264  40.986  -8.434  0.00  0.00    -0.056 A 
ATOM     53  CD1 MOL d          34.036  42.341  -8.300  0.00  0.00    -0.077 A 
ATOM     54  CE1 MOL d          32.991  42.987  -8.936  0.00  0.00    -0.082 A 
ATOM     55  H26 MOL d          34.701  42.921  -7.671  0.00  0.00     0.084 H 
ATOM     56  CZ  MOL d          32.142  42.242  -9.735  0.00  0.00    -0.083 A 
ATOM     57  H28 MOL d          32.841  44.053  -8.812  0.00  0.00     0.083 H 
ATOM     58  CE2 MOL d          32.349  40.879  -9.880  0.00  0.00    -0.082 A 
ATOM     59  H30 MOL d          31.316  42.723 -10.247  0.00  0.00     0.083 H 
ATOM     60  CD2 MOL d          33.402  40.253  -9.240  0.00  0.00    -0.077 A 
ATOM     61  H29 MOL d          31.678  40.297 -10.502  0.00  0.00     0.083 H 
ATOM     62  H27 MOL d          33.555  39.188  -9.368  0.00  0.00     0.084 H 
ENDBRANCH  49  52
ENDBRANCH  47  49
BRANCH  47  63
ATOM     63  C   MOL d          35.586  37.852  -7.267  0.00  0.00     0.197 C 
ATOM     64  O   MOL d          36.724  37.611  -7.710  0.00  0.00    -0.646 OA
ATOM     65  OXT MOL d          34.677  37.026  -7.252  0.00  0.00    -0.646 OA
ENDBRANCH  47  63
ENDBRANCH  45  47
ENDBRANCH   1  43
TORSDOF 13
ENDMDL
MODEL 2
REMARK VINA RESULT:      -7.5      1.956      2.884
REMARK  13 active torsions:
REMARK  status: ('A' for Active; 'I' for Inactive)
REMARK    1  A    between atoms: CA_2  and  N_1 
REMARK    2  A    between atoms: P_3  and  CA_2 
REMARK    3  A    between atoms: CA_2  and  CB_6 
REMARK    4  A    between atoms: CM_13  and  P_3 
REMARK    5  A    between atoms: CB_6  and  CG_7 
REMARK    6  A    between atoms: CA_14  and  CM_13 
REMARK    7  A    between atoms: CA_14  and  CB_15 
REMARK    8  A    between atoms: C_22  and  CA_14 
REMARK    9  A    between atoms: CB_15  and  CG_16 
REMARK       I    between atoms: C_22  and  N_24 
REMARK   10  A    between atoms: N_24  and  CA_25 
REMARK   11  A    between atoms: CA_25  and  CB_28 
REMARK   12  A    between atoms: CA_25  and  C_26 
REMARK   13  A    between atoms: CB_28  and  CG_29 
ROOT
ATOM      1  CA  MOL d          38.030  39.768  -3.983  0.00  0.00     0.036 C 
ATOM      2  H14 MOL d          37.553  39.310  -3.104  0.00  0.00     0.056 H 
ENDROOT
BRANCH   1   3
ATOM      3  CM  MOL d          39.484  39.256  -4.015  0.00  0.00     0.021 C 
ATOM      4  H12 MOL d          39.696  38.909  -5.037  0.00  0.00     0.050 H 
ATOM      5  H13 MOL d          40.143  40.102  -3.771  0.00  0.00     0.050 H 
BRANCH   3   6
ATOM      6  P   MOL d          39.865  37.941  -2.910  0.00  0.00     0.138 P 
ATOM      7  O1P MOL d          39.131  38.113  -1.614  0.00  0.00    -0.666 OA
ATOM      8  O2P MOL d          41.304  37.881  -2.584  0.00  0.00    -0.666 OA
BRANCH   6   9
ATOM      9  CA  MOL d          39.412  36.623  -3.915  0.00  0.00     0.177 C 
ATOM     10  H4  MOL d          38.312  36.648  -3.912  0.00  0.00     0.101 H 
BRANCH   9  11
ATOM     11  N   MOL d          39.898  36.842  -5.296  0.00  0.00    -0.065 N 
ATOM     12  H1  MOL d          40.000  35.954  -5.761  0.00  0.00     0.275 HD
ATOM     13  H2  MOL d          40.790  37.311  -5.268  0.00  0.00     0.275 HD
ATOM     14  H3  MOL d          39.235  37.411  -5.800  0.00  0.00     0.275 HD
ENDBRANCH   9  11
BRANCH   9  15
ATOM     15  CB  MOL d          39.781  35.213  -3.713  0.00  0.00    -0.005 C 
ATOM     16  H5  MOL d          40.861  35.107  -3.891  0.00  0.00     0.044 H 
ATOM     17  H6  MOL d          39.227  34.600  -4.438  0.00  0.00     0.044 H 
BRANCH  15  18
ATOM     18  CG  MOL d          39.470  34.702  -2.310  0.00  0.00    -0.056 A 
ATOM     19  CD1 MOL d          40.547  34.363  -1.478  0.00  0.00    -0.077 A 
ATOM     20  CE1 MOL d          40.210  33.886  -0.208  0.00  0.00    -0.082 A 
ATOM     21  H7  MOL d          41.576  34.464  -1.800  0.00  0.00     0.084 H 
ATOM     22  CZ  MOL d          38.898  33.770   0.229  0.00  0.00    -0.083 A 
ATOM     23  H9  MOL d          41.008  33.595   0.465  0.00  0.00     0.083 H 
ATOM     24  CE2 MOL d          37.895  34.120  -0.650  0.00  0.00    -0.082 A 
ATOM     25  H11 MOL d          38.670  33.416   1.227  0.00  0.00     0.083 H 
ATOM     26  CD2 MOL d          38.169  34.538  -1.883  0.00  0.00    -0.077 A 
ATOM     27  H10 MOL d          36.861  34.053  -0.330  0.00  0.00     0.083 H 
ATOM     28  H8  MOL d          37.355  34.755  -2.564  0.00  0.00     0.084 H 
ENDBRANCH  15  18
ENDBRANCH   9  15
ENDBRANCH   6   9
ENDBRANCH   3   6
ENDBRANCH   1   3
BRANCH   1  29
ATOM     29  CB  MOL d          38.032  41.291  -3.770  0.00  0.00    -0.029 C 
ATOM     30  H15 MOL d          37.379  41.739  -4.535  0.00  0.00     0.041 H 
ATOM     31  H16 MOL d          39.062  41.650  -3.910  0.00  0.00     0.041 H 
BRANCH  29  32
ATOM     32  CG  MOL d          37.554  41.768  -2.416  0.00  0.00    -0.057 A 
ATOM     33  CD1 MOL d          37.429  43.120  -2.134  0.00  0.00    -0.077 A 
ATOM     34  CE1 MOL d          37.001  43.560  -0.897  0.00  0.00    -0.082 A 
ATOM     35  H17 MOL d          37.674  43.847  -2.901  0.00  0.00     0.084 H 
ATOM     36  CZ  MOL d          36.683  42.625   0.070  0.00  0.00    -0.083 A 
ATOM     37  H19 MOL d          36.914  44.620  -0.688  0.00  0.00     0.083 H 
ATOM     38  CE2 MOL d          36.805  41.271  -0.198  0.00  0.00    -0.082 A 
ATOM     39  H21 MOL d          36.337  42.952   1.043  0.00  0.00     0.083 H 
ATOM     40  CD2 MOL d          37.207  40.841  -1.447  0.00  0.00    -0.077 A 
ATOM     41  H20 MOL d          36.584  40.546   0.576  0.00  0.00     0.083 H 
ATOM     42  H18 MOL d          37.251  39.781  -1.669  0.00  0.00     0.084 H 
ENDBRANCH  29  32
ENDBRANCH   1  29
BRANCH   1  43
ATOM     43  C   MOL d          37.171  39.380  -5.193  0.00  0.00     0.223 C 
ATOM     44  O   MOL d          37.180  38.259  -5.695  0.00  0.00    -0.273 OA
ATOM     45  N   MOL d          36.398  40.341  -5.641  0.00  0.00    -0.346 N 
ATOM     46  H22 MOL d          36.457  41.177  -5.097  0.00  0.00     0.163 HD
BRANCH  45  47
ATOM     47  CA  MOL d          35.478  40.451  -6.754  0.00  0.00     0.100 C 
ATOM     48  H23 MOL d          35.889  39.953  -7.644  0.00  0.00     0.090 H 
BRANCH  47  49
ATOM     49  CB  MOL d          34.197  39.778  -6.346  0.00  0.00    -0.013 C 
ATOM     50  H24 MOL d          33.587  40.572  -5.891  0.00  0.00     0.043 H 
ATOM     51  H25 MOL d          34.486  39.050  -5.575  0.00  0.00     0.043 H 
BRANCH  49  52
ATOM     52  CG  MOL d          33.269  39.040  -7.253  0.00  0.00    -0.056 A 
ATOM     53  CD1 MOL d          32.576  37.925  -6.826  0.00  0.00    -0.077 A 
ATOM     54  CE1 MOL d          31.692  37.240  -7.641  0.00  0.00    -0.082 A 
ATOM     55  H26 MOL d          32.730  37.573  -5.813  0.00  0.00     0.084 H 
ATOM     56  CZ  MOL d          31.500  37.692  -8.935  0.00  0.00    -0.083 A 
ATOM     57  H28 MOL d          31.161  36.369  -7.273  0.00  0.00     0.083 H 
ATOM     58  CE2 MOL d          32.190  38.806  -9.387  0.00  0.00    -0.082 A 
ATOM     59  H30 MOL d          30.812  37.174  -9.594  0.00  0.00     0.083 H 
ATOM     60  CD2 MOL d          33.064  39.479  -8.555  0.00  0.00    -0.077 A 
ATOM     61  H29 MOL d          32.041  39.152 -10.403  0.00  0.00     0.083 H 
ATOM     62  H27 MOL d          33.591  40.353  -8.920  0.00  0.00     0.084 H 
ENDBRANCH  49  52
ENDBRANCH  47  49
BRANCH  47  63
ATOM     63  C   MOL d          35.282  41.941  -7.044  0.00  0.00     0.197 C 
ATOM     64  O   MOL d          35.066  42.283  -8.221  0.00  0.00    -0.646 OA
ATOM     65  OXT MOL d          35.338  42.735  -6.109  0.00  0.00    -0.646 OA
ENDBRANCH  47  63
ENDBRANCH  45  47
ENDBRANCH   1  43
TORSDOF 13
ENDMDL
MODEL 3
REMARK VINA RESULT:      -7.4      3.009      4.278
REMARK  13 active torsions:
REMARK  status: ('A' for Active; 'I' for Inactive)
REMARK    1  A    between atoms: CA_2  and  N_1 
REMARK    2  A    between atoms: P_3  and  CA_2 
REMARK    3  A    between atoms: CA_2  and  CB_6 
REMARK    4  A    between atoms: CM_13  and  P_3 
REMARK    5  A    between atoms: CB_6  and  CG_7 
REMARK    6  A    between atoms: CA_14  and  CM_13 
REMARK    7  A    between atoms: CA_14  and  CB_15 
REMARK    8  A    between atoms: C_22  and  CA_14 
REMARK    9  A    between atoms: CB_15  and  CG_16 
REMARK       I    between atoms: C_22  and  N_24 
REMARK   10  A    between atoms: N_24  and  CA_25 
REMARK   11  A    between atoms: CA_25  and  CB_28 
REMARK   12  A    between atoms: CA_25  and  C_26 
REMARK   13  A    between atoms: CB_28  and  CG_29 
ROOT
ATOM      1  CA  MOL d          37.466  40.831  -3.623  0.00  0.00     0.036 C 
ATOM      2  H14 MOL d          37.127  40.215  -2.777  0.00  0.00     0.056 H 
ENDROOT
BRANCH   1   3
ATOM      3  CM  MOL d          38.610  40.056  -4.306  0.00  0.00     0.021 C 
ATOM      4  H12 MOL d          38.396  40.023  -5.385  0.00  0.00     0.050 H 
ATOM      5  H13 MOL d          39.543  40.613  -4.134  0.00  0.00     0.050 H 
BRANCH   3   6
ATOM      6  P   MOL d          38.860  38.403  -3.756  0.00  0.00     0.138 P 
ATOM      7  O1P MOL d          37.805  38.014  -2.764  0.00  0.00    -0.666 OA
ATOM      8  O2P MOL d          40.165  38.226  -3.089  0.00  0.00    -0.666 OA
BRANCH   6   9
ATOM      9  CA  MOL d          38.845  37.620  -5.286  0.00  0.00     0.177 C 
ATOM     10  H4  MOL d          38.248  38.288  -5.924  0.00  0.00     0.101 H 
BRANCH   9  11
ATOM     11  N   MOL d          40.219  37.531  -5.828  0.00  0.00    -0.065 N 
ATOM     12  H1  MOL d          40.198  37.073  -6.726  0.00  0.00     0.275 HD
ATOM     13  H2  MOL d          40.796  37.000  -5.195  0.00  0.00     0.275 HD
ATOM     14  H3  MOL d          40.600  38.458  -5.933  0.00  0.00     0.275 HD
ENDBRANCH   9  11
BRANCH   9  15
ATOM     15  CB  MOL d          38.352  36.261  -5.557  0.00  0.00    -0.005 C 
ATOM     16  H5  MOL d          37.915  35.857  -4.632  0.00  0.00     0.044 H 
ATOM     17  H6  MOL d          39.203  35.636  -5.864  0.00  0.00     0.044 H 
BRANCH  15  18
ATOM     18  CG  MOL d          37.295  36.209  -6.655  0.00  0.00    -0.056 A 
ATOM     19  CD1 MOL d          36.481  35.069  -6.733  0.00  0.00    -0.077 A 
ATOM     20  CE1 MOL d          35.537  35.063  -7.764  0.00  0.00    -0.082 A 
ATOM     21  H7  MOL d          36.578  34.245  -6.037  0.00  0.00     0.084 H 
ATOM     22  CZ  MOL d          35.384  36.118  -8.651  0.00  0.00    -0.083 A 
ATOM     23  H9  MOL d          34.896  34.195  -7.875  0.00  0.00     0.083 H 
ATOM     24  CE2 MOL d          36.226  37.202  -8.511  0.00  0.00    -0.082 A 
ATOM     25  H11 MOL d          34.629  36.092  -9.428  0.00  0.00     0.083 H 
ATOM     26  CD2 MOL d          37.165  37.231  -7.571  0.00  0.00    -0.077 A 
ATOM     27  H10 MOL d          36.118  38.048  -9.182  0.00  0.00     0.083 H 
ATOM     28  H8  MOL d          37.843  38.076  -7.523  0.00  0.00     0.084 H 
ENDBRANCH  15  18
ENDBRANCH   9  15
ENDBRANCH   6   9
ENDBRANCH   3   6
ENDBRANCH   1   3
BRANCH   1  29
ATOM     29  CB  MOL d          38.017  42.147  -3.046  0.00  0.00    -0.029 C 
ATOM     30  H15 MOL d          37.518  42.978  -3.567  0.00  0.00     0.041 H 
ATOM     31  H16 MOL d          39.097  42.180  -3.254  0.00  0.00     0.041 H 
BRANCH  29  32
ATOM     32  CG  MOL d          37.824  42.348  -1.560  0.00  0.00    -0.057 A 
ATOM     33  CD1 MOL d          38.395  43.427  -0.901  0.00  0.00    -0.077 A 
ATOM     34  CE1 MOL d          38.227  43.609   0.457  0.00  0.00    -0.082 A 
ATOM     35  H17 MOL d          38.985  44.141  -1.464  0.00  0.00     0.084 H 
ATOM     36  CZ  MOL d          37.466  42.698   1.164  0.00  0.00    -0.083 A 
ATOM     37  H19 MOL d          38.685  44.453   0.961  0.00  0.00     0.083 H 
ATOM     38  CE2 MOL d          36.892  41.615   0.518  0.00  0.00    -0.082 A 
ATOM     39  H21 MOL d          37.317  42.831   2.229  0.00  0.00     0.083 H 
ATOM     40  CD2 MOL d          37.042  41.457  -0.845  0.00  0.00    -0.077 A 
ATOM     41  H20 MOL d          36.322  40.889   1.087  0.00  0.00     0.083 H 
ATOM     42  H18 MOL d          36.548  40.638  -1.354  0.00  0.00     0.084 H 
ENDBRANCH  29  32
ENDBRANCH   1  29
BRANCH   1  43
ATOM     43  C   MOL d          36.231  41.085  -4.496  0.00  0.00     0.223 C 
ATOM     44  O   MOL d          35.293  41.796  -4.147  0.00  0.00    -0.273 OA
ATOM     45  N   MOL d          36.264  40.495  -5.667  0.00  0.00    -0.346 N 
ATOM     46  H22 MOL d          37.114  39.997  -5.833  0.00  0.00     0.163 HD
BRANCH  45  47
ATOM     47  CA  MOL d          35.332  40.411  -6.773  0.00  0.00     0.100 C 
ATOM     48  H23 MOL d          35.810  39.941  -7.645  0.00  0.00     0.090 H 
BRANCH  47  49
ATOM     49  CB  MOL d          34.172  39.569  -6.320  0.00  0.00    -0.013 C 
ATOM     50  H24 MOL d          33.522  40.254  -5.755  0.00  0.00     0.043 H 
ATOM     51  H25 MOL d          34.605  38.826  -5.635  0.00  0.00     0.043 H 
BRANCH  49  52
ATOM     52  CG  MOL d          33.252  38.796  -7.206  0.00  0.00    -0.056 A 
ATOM     53  CD1 MOL d          32.567  37.689  -6.747  0.00  0.00    -0.077 A 
ATOM     54  CE1 MOL d          31.692  36.971  -7.542  0.00  0.00    -0.082 A 
ATOM     55  H26 MOL d          32.723  37.369  -5.723  0.00  0.00     0.084 H 
ATOM     56  CZ  MOL d          31.500  37.382  -8.850  0.00  0.00    -0.083 A 
ATOM     57  H28 MOL d          31.168  36.107  -7.150  0.00  0.00     0.083 H 
ATOM     58  CE2 MOL d          32.181  38.488  -9.334  0.00  0.00    -0.082 A 
ATOM     59  H30 MOL d          30.817  36.839  -9.495  0.00  0.00     0.083 H 
ATOM     60  CD2 MOL d          33.047  39.194  -8.521  0.00  0.00    -0.077 A 
ATOM     61  H29 MOL d          32.032  38.802 -10.361  0.00  0.00     0.083 H 
ATOM     62  H27 MOL d          33.568  40.061  -8.912  0.00  0.00     0.084 H 
ENDBRANCH  49  52
ENDBRANCH  47  49
BRANCH  47  63
ATOM     63  C   MOL d          34.908  41.838  -7.128  0.00  0.00     0.197 C 
ATOM     64  O   MOL d          35.758  42.589  -7.641  0.00  0.00    -0.646 OA
ATOM     65  OXT MOL d          33.751  42.182  -6.901  0.00  0.00    -0.646 OA
ENDBRANCH  47  63
ENDBRANCH  45  47
ENDBRANCH   1  43
TORSDOF 13
ENDMDL
MODEL 4
REMARK VINA RESULT:      -7.4      2.350      7.132
REMARK  13 active torsions:
REMARK  status: ('A' for Active; 'I' for Inactive)
REMARK    1  A    between atoms: CA_2  and  N_1 
REMARK    2  A    between atoms: P_3  and  CA_2 
REMARK    3  A    between atoms: CA_2  and  CB_6 
REMARK    4  A    between atoms: CM_13  and  P_3 
REMARK    5  A    between atoms: CB_6  and  CG_7 
REMARK    6  A    between atoms: CA_14  and  CM_13 
REMARK    7  A    between atoms: CA_14  and  CB_15 
REMARK    8  A    between atoms: C_22  and  CA_14 
REMARK    9  A    between atoms: CB_15  and  CG_16 
REMARK       I    between atoms: C_22  and  N_24 
REMARK   10  A    between atoms: N_24  and  CA_25 
REMARK   11  A    between atoms: CA_25  and  CB_28 
REMARK   12  A    between atoms: CA_25  and  C_26 
REMARK   13  A    between atoms: CB_28  and  CG_29 
ROOT
ATOM      1  CA  MOL d          38.707  38.312  -3.065  0.00  0.00     0.036 C 
ATOM      2  H14 MOL d          37.737  37.799  -3.148  0.00  0.00     0.056 H 
ENDROOT
BRANCH   1   3
ATOM      3  CM  MOL d          39.681  37.573  -4.003  0.00  0.00     0.021 C 
ATOM      4  H12 MOL d          40.041  38.295  -4.751  0.00  0.00     0.050 H 
ATOM      5  H13 MOL d          40.528  37.220  -3.397  0.00  0.00     0.050 H 
BRANCH   3   6
ATOM      6  P   MOL d          39.023  36.188  -4.866  0.00  0.00     0.138 P 
ATOM      7  O1P MOL d          37.660  35.844  -4.346  0.00  0.00    -0.666 OA
ATOM      8  O2P MOL d          39.860  34.981  -4.711  0.00  0.00    -0.666 OA
BRANCH   6   9
ATOM      9  CA  MOL d          39.135  36.807  -6.465  0.00  0.00     0.177 C 
ATOM     10  H4  MOL d          38.670  37.802  -6.402  0.00  0.00     0.101 H 
BRANCH   9  11
ATOM     11  N   MOL d          40.554  36.959  -6.857  0.00  0.00    -0.065 N 
ATOM     12  H1  MOL d          40.654  37.765  -7.453  0.00  0.00     0.275 HD
ATOM     13  H2  MOL d          40.856  36.135  -7.353  0.00  0.00     0.275 HD
ATOM     14  H3  MOL d          41.119  37.081  -6.031  0.00  0.00     0.275 HD
ENDBRANCH   9  11
BRANCH   9  15
ATOM     15  CB  MOL d          38.580  36.182  -7.676  0.00  0.00    -0.005 C 
ATOM     16  H5  MOL d          38.213  35.179  -7.414  0.00  0.00     0.044 H 
ATOM     17  H6  MOL d          39.382  36.095  -8.423  0.00  0.00     0.044 H 
BRANCH  15  18
ATOM     18  CG  MOL d          37.429  36.972  -8.291  0.00  0.00    -0.056 A 
ATOM     19  CD1 MOL d          37.423  37.151  -9.682  0.00  0.00    -0.077 A 
ATOM     20  CE1 MOL d          36.356  37.894 -10.197  0.00  0.00    -0.082 A 
ATOM     21  H7  MOL d          38.197  36.739 -10.319  0.00  0.00     0.084 H 
ATOM     22  CZ  MOL d          35.344  38.410  -9.400  0.00  0.00    -0.083 A 
ATOM     23  H9  MOL d          36.317  38.073 -11.266  0.00  0.00     0.083 H 
ATOM     24  CE2 MOL d          35.425  38.194  -8.040  0.00  0.00    -0.082 A 
ATOM     25  H11 MOL d          34.520  38.964  -9.832  0.00  0.00     0.083 H 
ATOM     26  CD2 MOL d          36.444  37.529  -7.504  0.00  0.00    -0.077 A 
ATOM     27  H10 MOL d          34.640  38.574  -7.395  0.00  0.00     0.083 H 
ATOM     28  H8  MOL d          36.502  37.423  -6.427  0.00  0.00     0.084 H 
ENDBRANCH  15  18
ENDBRANCH   9  15
ENDBRANCH   6   9
ENDBRANCH   3   6
ENDBRANCH   1   3
BRANCH   1  29
ATOM     29  CB  MOL d          39.188  38.162  -1.611  0.00  0.00    -0.029 C 
ATOM     30  H15 MOL d          38.494  38.723  -0.967  0.00  0.00     0.041 H 
ATOM     31  H16 MOL d          40.192  38.604  -1.541  0.00  0.00     0.041 H 
BRANCH  29  32
ATOM     32  CG  MOL d          39.266  36.746  -1.085  0.00  0.00    -0.057 A 
ATOM     33  CD1 MOL d          40.462  36.215  -0.628  0.00  0.00    -0.077 A 
ATOM     34  CE1 MOL d          40.539  34.920  -0.153  0.00  0.00    -0.082 A 
ATOM     35  H17 MOL d          41.355  36.828  -0.643  0.00  0.00     0.084 H 
ATOM     36  CZ  MOL d          39.392  34.149  -0.130  0.00  0.00    -0.083 A 
ATOM     37  H19 MOL d          41.482  34.515   0.195  0.00  0.00     0.083 H 
ATOM     38  CE2 MOL d          38.191  34.667  -0.586  0.00  0.00    -0.082 A 
ATOM     39  H21 MOL d          39.433  33.134   0.247  0.00  0.00     0.083 H 
ATOM     40  CD2 MOL d          38.119  35.972  -1.031  0.00  0.00    -0.077 A 
ATOM     41  H20 MOL d          37.303  34.044  -0.592  0.00  0.00     0.083 H 
ATOM     42  H18 MOL d          37.167  36.389  -1.338  0.00  0.00     0.084 H 
ENDBRANCH  29  32
ENDBRANCH   1  29
BRANCH   1  43
ATOM     43  C   MOL d          38.448  39.783  -3.413  0.00  0.00     0.223 C 
ATOM     44  O   MOL d          39.319  40.539  -3.833  0.00  0.00    -0.273 OA
ATOM     45  N   MOL d          37.206  40.170  -3.247  0.00  0.00    -0.346 N 
ATOM     46  H22 MOL d          36.600  39.431  -2.955  0.00  0.00     0.163 HD
BRANCH  45  47
ATOM     47  CA  MOL d          36.523  41.438  -3.397  0.00  0.00     0.100 C 
ATOM     48  H23 MOL d          35.528  41.398  -2.931  0.00  0.00     0.090 H 
BRANCH  47  49
ATOM     49  CB  MOL d          37.359  42.483  -2.712  0.00  0.00    -0.013 C 
ATOM     50  H24 MOL d          36.960  43.447  -3.063  0.00  0.00     0.043 H 
ATOM     51  H25 MOL d          38.376  42.342  -3.106  0.00  0.00     0.043 H 
BRANCH  49  52
ATOM     52  CG  MOL d          37.527  42.641  -1.237  0.00  0.00    -0.056 A 
ATOM     53  CD1 MOL d          38.391  43.576  -0.705  0.00  0.00    -0.077 A 
ATOM     54  CE1 MOL d          38.547  43.757   0.658  0.00  0.00    -0.082 A 
ATOM     55  H26 MOL d          38.971  44.194  -1.381  0.00  0.00     0.084 H 
ATOM     56  CZ  MOL d          37.807  42.964   1.518  0.00  0.00    -0.083 A 
ATOM     57  H28 MOL d          39.232  44.503   1.044  0.00  0.00     0.083 H 
ATOM     58  CE2 MOL d          36.937  42.015   1.006  0.00  0.00    -0.082 A 
ATOM     59  H30 MOL d          37.907  43.086   2.591  0.00  0.00     0.083 H 
ATOM     60  CD2 MOL d          36.793  41.854  -0.359  0.00  0.00    -0.077 A 
ATOM     61  H29 MOL d          36.364  41.392   1.683  0.00  0.00     0.083 H 
ATOM     62  H27 MOL d          36.104  41.111  -0.746  0.00  0.00     0.084 H 
ENDBRANCH  49  52
ENDBRANCH  47  49
BRANCH  47  63
ATOM     63  C   MOL d          36.376  41.707  -4.897  0.00  0.00     0.197 C 
ATOM     64  O   MOL d          36.973  42.689  -5.375  0.00  0.00    -0.646 OA
ATOM     65  OXT MOL d          35.685  40.944  -5.568  0.00  0.00    -0.646 OA
ENDBRANCH  47  63
ENDBRANCH  45  47
ENDBRANCH   1  43
TORSDOF 13
ENDMDL
MODEL 5
REMARK VINA RESULT:      -7.3      1.971      7.256
REMARK  13 active torsions:
REMARK  status: ('A' for Active; 'I' for Inactive)
REMARK    1  A    between atoms: CA_2  and  N_1 
REMARK    2  A    between atoms: P_3  and  CA_2 
REMARK    3  A    between atoms: CA_2  and  CB_6 
REMARK    4  A    between atoms: CM_13  and  P_3 
REMARK    5  A    between atoms: CB_6  and  CG_7 
REMARK    6  A    between atoms: CA_14  and  CM_13 
REMARK    7  A    between atoms: CA_14  and  CB_15 
REMARK    8  A    between atoms: C_22  and  CA_14 
REMARK    9  A    between atoms: CB_15  and  CG_16 
REMARK       I    between atoms: C_22  and  N_24 
REMARK   10  A    between atoms: N_24  and  CA_25 
REMARK   11  A    between atoms: CA_25  and  CB_28 
REMARK   12  A    between atoms: CA_25  and  C_26 
REMARK   13  A    between atoms: CB_28  and  CG_29 
ROOT
ATOM      1  CA  MOL d          38.290  38.400  -4.364  0.00  0.00     0.036 C 
ATOM      2  H14 MOL d          37.761  37.566  -3.879  0.00  0.00     0.056 H 
ENDROOT
BRANCH   1   3
ATOM      3  CM  MOL d          38.959  37.826  -5.628  0.00  0.00     0.021 C 
ATOM      4  H12 MOL d          38.839  38.564  -6.436  0.00  0.00     0.050 H 
ATOM      5  H13 MOL d          40.028  37.692  -5.411  0.00  0.00     0.050 H 
BRANCH   3   6
ATOM      6  P   MOL d          38.329  36.289  -6.207  0.00  0.00     0.138 P 
ATOM      7  O1P MOL d          37.423  35.673  -5.182  0.00  0.00    -0.666 OA
ATOM      8  O2P MOL d          39.400  35.310  -6.477  0.00  0.00    -0.666 OA
BRANCH   6   9
ATOM      9  CA  MOL d          37.619  36.838  -7.672  0.00  0.00     0.177 C 
ATOM     10  H4  MOL d          37.641  37.935  -7.587  0.00  0.00     0.101 H 
BRANCH   9  11
ATOM     11  N   MOL d          38.446  36.424  -8.828  0.00  0.00    -0.065 N 
ATOM     12  H1  MOL d          38.162  36.939  -9.646  0.00  0.00     0.275 HD
ATOM     13  H2  MOL d          38.321  35.437  -8.992  0.00  0.00     0.275 HD
ATOM     14  H3  MOL d          39.416  36.613  -8.632  0.00  0.00     0.275 HD
ENDBRANCH   9  11
BRANCH   9  15
ATOM     15  CB  MOL d          36.272  36.502  -8.160  0.00  0.00    -0.005 C 
ATOM     16  H5  MOL d          35.848  35.725  -7.507  0.00  0.00     0.044 H 
ATOM     17  H6  MOL d          36.360  36.112  -9.185  0.00  0.00     0.044 H 
BRANCH  15  18
ATOM     18  CG  MOL d          35.320  37.693  -8.177  0.00  0.00    -0.056 A 
ATOM     19  CD1 MOL d          34.119  37.587  -7.461  0.00  0.00    -0.077 A 
ATOM     20  CE1 MOL d          33.274  38.699  -7.518  0.00  0.00    -0.082 A 
ATOM     21  H7  MOL d          33.862  36.698  -6.897  0.00  0.00     0.084 H 
ATOM     22  CZ  MOL d          33.595  39.854  -8.216  0.00  0.00    -0.083 A 
ATOM     23  H9  MOL d          32.326  38.657  -6.994  0.00  0.00     0.083 H 
ATOM     24  CE2 MOL d          34.794  39.879  -8.899  0.00  0.00    -0.082 A 
ATOM     25  H11 MOL d          32.928  40.707  -8.225  0.00  0.00     0.083 H 
ATOM     26  CD2 MOL d          35.608  38.827  -8.906  0.00  0.00    -0.077 A 
ATOM     27  H10 MOL d          35.077  40.774  -9.442  0.00  0.00     0.083 H 
ATOM     28  H8  MOL d          36.517  38.863  -9.496  0.00  0.00     0.084 H 
ENDBRANCH  15  18
ENDBRANCH   9  15
ENDBRANCH   6   9
ENDBRANCH   3   6
ENDBRANCH   1   3
BRANCH   1  29
ATOM     29  CB  MOL d          39.377  38.889  -3.391  0.00  0.00    -0.029 C 
ATOM     30  H15 MOL d          38.932  39.668  -2.753  0.00  0.00     0.041 H 
ATOM     31  H16 MOL d          40.192  39.325  -3.987  0.00  0.00     0.041 H 
BRANCH  29  32
ATOM     32  CG  MOL d          39.975  37.835  -2.486  0.00  0.00    -0.057 A 
ATOM     33  CD1 MOL d          41.217  37.281  -2.753  0.00  0.00    -0.077 A 
ATOM     34  CE1 MOL d          41.764  36.313  -1.933  0.00  0.00    -0.082 A 
ATOM     35  H17 MOL d          41.771  37.614  -3.623  0.00  0.00     0.084 H 
ATOM     36  CZ  MOL d          41.054  35.902  -0.822  0.00  0.00    -0.083 A 
ATOM     37  H19 MOL d          42.733  35.883  -2.158  0.00  0.00     0.083 H 
ATOM     38  CE2 MOL d          39.810  36.446  -0.544  0.00  0.00    -0.082 A 
ATOM     39  H21 MOL d          41.471  35.150  -0.163  0.00  0.00     0.083 H 
ATOM     40  CD2 MOL d          39.285  37.434  -1.354  0.00  0.00    -0.077 A 
ATOM     41  H20 MOL d          39.247  36.095   0.313  0.00  0.00     0.083 H 
ATOM     42  H18 MOL d          38.336  37.893  -1.104  0.00  0.00     0.084 H 
ENDBRANCH  29  32
ENDBRANCH   1  29
BRANCH   1  43
ATOM     43  C   MOL d          37.240  39.490  -4.612  0.00  0.00     0.223 C 
ATOM     44  O   MOL d          36.412  39.435  -5.517  0.00  0.00    -0.273 OA
ATOM     45  N   MOL d          37.278  40.486  -3.759  0.00  0.00    -0.346 N 
ATOM     46  H22 MOL d          37.966  40.364  -3.044  0.00  0.00     0.163 HD
BRANCH  45  47
ATOM     47  CA  MOL d          36.537  41.723  -3.630  0.00  0.00     0.100 C 
ATOM     48  H23 MOL d          35.588  41.552  -3.102  0.00  0.00     0.090 H 
BRANCH  47  49
ATOM     49  CB  MOL d          37.389  42.676  -2.837  0.00  0.00    -0.013 C 
ATOM     50  H24 MOL d          37.054  43.680  -3.137  0.00  0.00     0.043 H 
ATOM     51  H25 MOL d          38.415  42.511  -3.194  0.00  0.00     0.043 H 
BRANCH  49  52
ATOM     52  CG  MOL d          37.495  42.726  -1.349  0.00  0.00    -0.056 A 
ATOM     53  CD1 MOL d          36.781  41.862  -0.544  0.00  0.00    -0.077 A 
ATOM     54  CE1 MOL d          36.882  41.874   0.836  0.00  0.00    -0.082 A 
ATOM     55  H26 MOL d          36.116  41.145  -1.011  0.00  0.00     0.084 H 
ATOM     56  CZ  MOL d          37.730  42.793   1.429  0.00  0.00    -0.083 A 
ATOM     57  H28 MOL d          36.309  41.179   1.440  0.00  0.00     0.083 H 
ATOM     58  CE2 MOL d          38.453  43.675   0.640  0.00  0.00    -0.082 A 
ATOM     59  H30 MOL d          37.830  42.823   2.508  0.00  0.00     0.083 H 
ATOM     60  CD2 MOL d          38.342  43.642  -0.737  0.00  0.00    -0.077 A 
ATOM     61  H29 MOL d          39.111  44.397   1.108  0.00  0.00     0.083 H 
ATOM     62  H27 MOL d          38.918  44.333  -1.342  0.00  0.00     0.084 H 
ENDBRANCH  49  52
ENDBRANCH  47  49
BRANCH  47  63
ATOM     63  C   MOL d          36.253  42.240  -5.042  0.00  0.00     0.197 C 
ATOM     64  O   MOL d          35.085  42.163  -5.467  0.00  0.00    -0.646 OA
ATOM     65  OXT MOL d          37.180  42.714  -5.694  0.00  0.00    -0.646 OA
ENDBRANCH  47  63
ENDBRANCH  45  47
ENDBRANCH   1  43
TORSDOF 13
ENDMDL
MODEL 6
REMARK VINA RESULT:      -7.1      2.130      5.993
REMARK  13 active torsions:
REMARK  status: ('A' for Active; 'I' for Inactive)
REMARK    1  A    between atoms: CA_2  and  N_1 
REMARK    2  A    between atoms: P_3  and  CA_2 
REMARK    3  A    between atoms: CA_2  and  CB_6 
REMARK    4  A    between atoms: CM_13  and  P_3 
REMARK    5  A    between atoms: CB_6  and  CG_7 
REMARK    6  A    between atoms: CA_14  and  CM_13 
REMARK    7  A    between atoms: CA_14  and  CB_15 
REMARK    8  A    between atoms: C_22  and  CA_14 
REMARK    9  A    between atoms: CB_15  and  CG_16 
REMARK       I    between atoms: C_22  and  N_24 
REMARK   10  A    between atoms: N_24  and  CA_25 
REMARK   11  A    between atoms: CA_25  and  CB_28 
REMARK   12  A    between atoms: CA_25  and  C_26 
REMARK   13  A    between atoms: CB_28  and  CG_29 
ROOT
ATOM      1  CA  MOL d          38.525  37.937  -3.068  0.00  0.00     0.036 C 
ATOM      2  H14 MOL d          37.505  37.617  -3.329  0.00  0.00     0.056 H 
ENDROOT
BRANCH   1   3
ATOM      3  CM  MOL d          39.484  36.889  -3.665  0.00  0.00     0.021 C 
ATOM      4  H12 MOL d          40.279  37.428  -4.202  0.00  0.00     0.050 H 
ATOM      5  H13 MOL d          39.925  36.323  -2.831  0.00  0.00     0.050 H 
BRANCH   3   6
ATOM      6  P   MOL d          38.770  35.733  -4.782  0.00  0.00     0.138 P 
ATOM      7  O1P MOL d          37.402  35.329  -4.317  0.00  0.00    -0.666 OA
ATOM      8  O2P MOL d          39.567  34.495  -4.896  0.00  0.00    -0.666 OA
BRANCH   6   9
ATOM      9  CA  MOL d          38.881  36.665  -6.221  0.00  0.00     0.177 C 
ATOM     10  H4  MOL d          38.060  37.392  -6.135  0.00  0.00     0.101 H 
BRANCH   9  11
ATOM     11  N   MOL d          40.170  37.392  -6.262  0.00  0.00    -0.065 N 
ATOM     12  H1  MOL d          40.929  36.732  -6.197  0.00  0.00     0.275 HD
ATOM     13  H2  MOL d          40.217  38.035  -5.487  0.00  0.00     0.275 HD
ATOM     14  H3  MOL d          40.241  37.902  -7.128  0.00  0.00     0.275 HD
ENDBRANCH   9  11
BRANCH   9  15
ATOM     15  CB  MOL d          38.813  36.146  -7.596  0.00  0.00    -0.005 C 
ATOM     16  H5  MOL d          38.943  35.054  -7.563  0.00  0.00     0.044 H 
ATOM     17  H6  MOL d          39.629  36.595  -8.180  0.00  0.00     0.044 H 
BRANCH  15  18
ATOM     18  CG  MOL d          37.492  36.454  -8.295  0.00  0.00    -0.056 A 
ATOM     19  CD1 MOL d          36.306  36.035  -7.676  0.00  0.00    -0.077 A 
ATOM     20  CE1 MOL d          35.123  36.329  -8.361  0.00  0.00    -0.082 A 
ATOM     21  H7  MOL d          36.306  35.515  -6.725  0.00  0.00     0.084 H 
ATOM     22  CZ  MOL d          35.103  37.012  -9.569  0.00  0.00    -0.083 A 
ATOM     23  H9  MOL d          34.181  36.009  -7.930  0.00  0.00     0.083 H 
ATOM     24  CE2 MOL d          36.313  37.387 -10.115  0.00  0.00    -0.082 A 
ATOM     25  H11 MOL d          34.168  37.242 -10.066  0.00  0.00     0.083 H 
ATOM     26  CD2 MOL d          37.463  37.091  -9.517  0.00  0.00    -0.077 A 
ATOM     27  H10 MOL d          36.326  37.935 -11.051  0.00  0.00     0.083 H 
ATOM     28  H8  MOL d          38.397  37.355 -10.001  0.00  0.00     0.084 H 
ENDBRANCH  15  18
ENDBRANCH   9  15
ENDBRANCH   6   9
ENDBRANCH   3   6
ENDBRANCH   1   3
BRANCH   1  29
ATOM     29  CB  MOL d          38.639  37.917  -1.534  0.00  0.00    -0.029 C 
ATOM     30  H15 MOL d          37.674  38.245  -1.120  0.00  0.00     0.041 H 
ATOM     31  H16 MOL d          39.425  38.631  -1.246  0.00  0.00     0.041 H 
BRANCH  29  32
ATOM     32  CG  MOL d          38.978  36.579  -0.916  0.00  0.00    -0.057 A 
ATOM     33  CD1 MOL d          40.191  36.369  -0.278  0.00  0.00    -0.077 A 
ATOM     34  CE1 MOL d          40.507  35.147   0.281  0.00  0.00    -0.082 A 
ATOM     35  H17 MOL d          40.907  37.181  -0.218  0.00  0.00     0.084 H 
ATOM     36  CZ  MOL d          39.585  34.120   0.207  0.00  0.00    -0.083 A 
ATOM     37  H19 MOL d          41.463  34.994   0.770  0.00  0.00     0.083 H 
ATOM     38  CE2 MOL d          38.369  34.316  -0.429  0.00  0.00    -0.082 A 
ATOM     39  H21 MOL d          39.812  33.157   0.648  0.00  0.00     0.083 H 
ATOM     40  CD2 MOL d          38.051  35.550  -0.960  0.00  0.00    -0.077 A 
ATOM     41  H20 MOL d          37.665  33.496  -0.509  0.00  0.00     0.083 H 
ATOM     42  H18 MOL d          37.079  35.713  -1.410  0.00  0.00     0.084 H 
ENDBRANCH  29  32
ENDBRANCH   1  29
BRANCH   1  43
ATOM     43  C   MOL d          38.684  39.361  -3.616  0.00  0.00     0.223 C 
ATOM     44  O   MOL d          39.717  39.772  -4.136  0.00  0.00    -0.273 OA
ATOM     45  N   MOL d          37.611  40.108  -3.506  0.00  0.00    -0.346 N 
ATOM     46  H22 MOL d          36.831  39.620  -3.114  0.00  0.00     0.163 HD
BRANCH  45  47
ATOM     47  CA  MOL d          37.313  41.488  -3.829  0.00  0.00     0.100 C 
ATOM     48  H23 MOL d          37.972  41.846  -4.634  0.00  0.00     0.090 H 
BRANCH  47  49
ATOM     49  CB  MOL d          35.883  41.543  -4.288  0.00  0.00    -0.013 C 
ATOM     50  H24 MOL d          35.521  42.536  -3.984  0.00  0.00     0.043 H 
ATOM     51  H25 MOL d          35.363  40.769  -3.705  0.00  0.00     0.043 H 
BRANCH  49  52
ATOM     52  CG  MOL d          35.405  41.364  -5.691  0.00  0.00    -0.056 A 
ATOM     53  CD1 MOL d          34.841  42.405  -6.401  0.00  0.00    -0.077 A 
ATOM     54  CE1 MOL d          34.413  42.269  -7.710  0.00  0.00    -0.082 A 
ATOM     55  H26 MOL d          34.730  43.367  -5.914  0.00  0.00     0.084 H 
ATOM     56  CZ  MOL d          34.554  41.038  -8.326  0.00  0.00    -0.083 A 
ATOM     57  H28 MOL d          33.977  43.108  -8.240  0.00  0.00     0.083 H 
ATOM     58  CE2 MOL d          35.112  39.977  -7.630  0.00  0.00    -0.082 A 
ATOM     59  H30 MOL d          34.229  40.904  -9.352  0.00  0.00     0.083 H 
ATOM     60  CD2 MOL d          35.538  40.135  -6.326  0.00  0.00    -0.077 A 
ATOM     61  H29 MOL d          35.214  39.012  -8.115  0.00  0.00     0.083 H 
ATOM     62  H27 MOL d          35.978  39.298  -5.796  0.00  0.00     0.084 H 
ENDBRANCH  49  52
ENDBRANCH  47  49
BRANCH  47  63
ATOM     63  C   MOL d          37.548  42.319  -2.565  0.00  0.00     0.197 C 
ATOM     64  O   MOL d          37.422  41.753  -1.464  0.00  0.00    -0.646 OA
ATOM     65  OXT MOL d          37.858  43.501  -2.687  0.00  0.00    -0.646 OA
ENDBRANCH  47  63
ENDBRANCH  45  47
ENDBRANCH   1  43
TORSDOF 13
ENDMDL
MODEL 7
REMARK VINA RESULT:      -7.1      2.040      5.256
REMARK  13 active torsions:
REMARK  status: ('A' for Active; 'I' for Inactive)
REMARK    1  A    between atoms: CA_2  and  N_1 
REMARK    2  A    between atoms: P_3  and  CA_2 
REMARK    3  A    between atoms: CA_2  and  CB_6 
REMARK    4  A    between atoms: CM_13  and  P_3 
REMARK    5  A    between atoms: CB_6  and  CG_7 
REMARK    6  A    between atoms: CA_14  and  CM_13 
REMARK    7  A    between atoms: CA_14  and  CB_15 
REMARK    8  A    between atoms: C_22  and  CA_14 
REMARK    9  A    between atoms: CB_15  and  CG_16 
REMARK       I    between atoms: C_22  and  N_24 
REMARK   10  A    between atoms: N_24  and  CA_25 
REMARK   11  A    between atoms: CA_25  and  CB_28 
REMARK   12  A    between atoms: CA_25  and  C_26 
REMARK   13  A    between atoms: CB_28  and  CG_29 
ROOT
ATOM      1  CA  MOL d          37.660  39.261  -5.420  0.00  0.00     0.036 C 
ATOM      2  H14 MOL d          38.011  40.007  -6.148  0.00  0.00     0.056 H 
ENDROOT
BRANCH   1   3
ATOM      3  CM  MOL d          36.931  40.038  -4.306  0.00  0.00     0.021 C 
ATOM      4  H12 MOL d          35.859  39.799  -4.375  0.00  0.00     0.050 H 
ATOM      5  H13 MOL d          37.323  39.688  -3.340  0.00  0.00     0.050 H 
BRANCH   3   6
ATOM      6  P   MOL d          37.094  41.790  -4.351  0.00  0.00     0.138 P 
ATOM      7  O1P MOL d          36.646  42.326  -5.677  0.00  0.00    -0.666 OA
ATOM      8  O2P MOL d          38.492  42.228  -4.160  0.00  0.00    -0.666 OA
BRANCH   6   9
ATOM      9  CA  MOL d          36.141  42.171  -2.972  0.00  0.00     0.177 C 
ATOM     10  H4  MOL d          36.048  43.266  -3.004  0.00  0.00     0.101 H 
BRANCH   9  11
ATOM     11  N   MOL d          34.796  41.565  -3.097  0.00  0.00    -0.065 N 
ATOM     12  H1  MOL d          34.349  41.909  -3.932  0.00  0.00     0.275 HD
ATOM     13  H2  MOL d          34.241  41.812  -2.293  0.00  0.00     0.275 HD
ATOM     14  H3  MOL d          34.883  40.563  -3.152  0.00  0.00     0.275 HD
ENDBRANCH   9  11
BRANCH   9  15
ATOM     15  CB  MOL d          36.466  41.836  -1.576  0.00  0.00    -0.005 C 
ATOM     16  H5  MOL d          37.180  41.000  -1.575  0.00  0.00     0.044 H 
ATOM     17  H6  MOL d          35.541  41.530  -1.067  0.00  0.00     0.044 H 
BRANCH  15  18
ATOM     18  CG  MOL d          37.081  42.998  -0.804  0.00  0.00    -0.056 A 
ATOM     19  CD1 MOL d          37.751  42.712   0.395  0.00  0.00    -0.077 A 
ATOM     20  CE1 MOL d          38.286  43.811   1.073  0.00  0.00    -0.082 A 
ATOM     21  H7  MOL d          37.848  41.700   0.771  0.00  0.00     0.084 H 
ATOM     22  CZ  MOL d          38.190  45.110   0.595  0.00  0.00    -0.083 A 
ATOM     23  H9  MOL d          38.798  43.641   2.014  0.00  0.00     0.083 H 
ATOM     24  CE2 MOL d          37.511  45.310  -0.589  0.00  0.00    -0.082 A 
ATOM     25  H11 MOL d          38.632  45.939   1.134  0.00  0.00     0.083 H 
ATOM     26  CD2 MOL d          36.951  44.298  -1.246  0.00  0.00    -0.077 A 
ATOM     27  H10 MOL d          37.433  46.313  -0.994  0.00  0.00     0.083 H 
ATOM     28  H8  MOL d          36.381  44.498  -2.146  0.00  0.00     0.084 H 
ENDBRANCH  15  18
ENDBRANCH   9  15
ENDBRANCH   6   9
ENDBRANCH   3   6
ENDBRANCH   1   3
BRANCH   1  29
ATOM     29  CB  MOL d          38.901  38.569  -4.829  0.00  0.00    -0.029 C 
ATOM     30  H15 MOL d          39.663  39.342  -4.647  0.00  0.00     0.041 H 
ATOM     31  H16 MOL d          39.275  37.854  -5.576  0.00  0.00     0.041 H 
BRANCH  29  32
ATOM     32  CG  MOL d          38.684  37.818  -3.534  0.00  0.00    -0.057 A 
ATOM     33  CD1 MOL d          38.635  38.482  -2.318  0.00  0.00    -0.077 A 
ATOM     34  CE1 MOL d          38.444  37.799  -1.133  0.00  0.00    -0.082 A 
ATOM     35  H17 MOL d          38.749  39.560  -2.297  0.00  0.00     0.084 H 
ATOM     36  CZ  MOL d          38.291  36.426  -1.172  0.00  0.00    -0.083 A 
ATOM     37  H19 MOL d          38.415  38.330  -0.189  0.00  0.00     0.083 H 
ATOM     38  CE2 MOL d          38.340  35.750  -2.380  0.00  0.00    -0.082 A 
ATOM     39  H21 MOL d          38.132  35.875  -0.253  0.00  0.00     0.083 H 
ATOM     40  CD2 MOL d          38.502  36.445  -3.562  0.00  0.00    -0.077 A 
ATOM     41  H20 MOL d          38.250  34.670  -2.397  0.00  0.00     0.083 H 
ATOM     42  H18 MOL d          38.488  35.918  -4.508  0.00  0.00     0.084 H 
ENDBRANCH  29  32
ENDBRANCH   1  29
BRANCH   1  43
ATOM     43  C   MOL d          36.793  38.267  -6.203  0.00  0.00     0.223 C 
ATOM     44  O   MOL d          36.971  37.053  -6.179  0.00  0.00    -0.273 OA
ATOM     45  N   MOL d          35.821  38.818  -6.889  0.00  0.00    -0.346 N 
ATOM     46  H22 MOL d          35.765  39.809  -6.766  0.00  0.00     0.163 HD
BRANCH  45  47
ATOM     47  CA  MOL d          34.810  38.300  -7.788  0.00  0.00     0.100 C 
ATOM     48  H23 MOL d          34.638  37.231  -7.600  0.00  0.00     0.090 H 
BRANCH  47  49
ATOM     49  CB  MOL d          33.543  39.067  -7.528  0.00  0.00    -0.013 C 
ATOM     50  H24 MOL d          33.462  39.128  -6.433  0.00  0.00     0.043 H 
ATOM     51  H25 MOL d          32.736  38.432  -7.921  0.00  0.00     0.043 H 
BRANCH  49  52
ATOM     52  CG  MOL d          33.235  40.442  -8.022  0.00  0.00    -0.056 A 
ATOM     53  CD1 MOL d          33.680  41.566  -7.356  0.00  0.00    -0.077 A 
ATOM     54  CE1 MOL d          33.427  42.849  -7.807  0.00  0.00    -0.082 A 
ATOM     55  H26 MOL d          34.251  41.438  -6.444  0.00  0.00     0.084 H 
ATOM     56  CZ  MOL d          32.695  43.008  -8.971  0.00  0.00    -0.083 A 
ATOM     57  H28 MOL d          33.794  43.711  -7.261  0.00  0.00     0.083 H 
ATOM     58  CE2 MOL d          32.232  41.894  -9.653  0.00  0.00    -0.082 A 
ATOM     59  H30 MOL d          32.483  44.002  -9.348  0.00  0.00     0.083 H 
ATOM     60  CD2 MOL d          32.501  40.620  -9.188  0.00  0.00    -0.077 A 
ATOM     61  H29 MOL d          31.654  42.022 -10.561  0.00  0.00     0.083 H 
ATOM     62  H27 MOL d          32.138  39.758  -9.736  0.00  0.00     0.084 H 
ENDBRANCH  49  52
ENDBRANCH  47  49
BRANCH  47  63
ATOM     63  C   MOL d          35.321  38.494  -9.217  0.00  0.00     0.197 C 
ATOM     64  O   MOL d          34.744  37.877 -10.132  0.00  0.00    -0.646 OA
ATOM     65  OXT MOL d          36.269  39.252  -9.406  0.00  0.00    -0.646 OA
ENDBRANCH  47  63
ENDBRANCH  45  47
ENDBRANCH   1  43
TORSDOF 13
ENDMDL
MODEL 8
REMARK VINA RESULT:      -7.1      2.194      7.241
REMARK  13 active torsions:
REMARK  status: ('A' for Active; 'I' for Inactive)
REMARK    1  A    between atoms: CA_2  and  N_1 
REMARK    2  A    between atoms: P_3  and  CA_2 
REMARK    3  A    between atoms: CA_2  and  CB_6 
REMARK    4  A    between atoms: CM_13  and  P_3 
REMARK    5  A    between atoms: CB_6  and  CG_7 
REMARK    6  A    between atoms: CA_14  and  CM_13 
REMARK    7  A    between atoms: CA_14  and  CB_15 
REMARK    8  A    between atoms: C_22  and  CA_14 
REMARK    9  A    between atoms: CB_15  and  CG_16 
REMARK       I    between atoms: C_22  and  N_24 
REMARK   10  A    between atoms: N_24  and  CA_25 
REMARK   11  A    between atoms: CA_25  and  CB_28 
REMARK   12  A    between atoms: CA_25  and  C_26 
REMARK   13  A    between atoms: CB_28  and  CG_29 
ROOT
ATOM      1  CA  MOL d          37.412  38.083  -5.700  0.00  0.00     0.036 C 
ATOM      2  H14 MOL d          37.052  37.247  -5.083  0.00  0.00     0.056 H 
ENDROOT
BRANCH   1   3
ATOM      3  CM  MOL d          37.765  37.495  -7.081  0.00  0.00     0.021 C 
ATOM      4  H12 MOL d          37.464  38.227  -7.845  0.00  0.00     0.050 H 
ATOM      5  H13 MOL d          38.855  37.354  -7.117  0.00  0.00     0.050 H 
BRANCH   3   6
ATOM      6  P   MOL d          37.010  35.958  -7.482  0.00  0.00     0.138 P 
ATOM      7  O1P MOL d          35.980  35.593  -6.455  0.00  0.00    -0.666 OA
ATOM      8  O2P MOL d          37.983  34.848  -7.527  0.00  0.00    -0.666 OA
BRANCH   6   9
ATOM      9  CA  MOL d          36.458  36.349  -9.062  0.00  0.00     0.177 C 
ATOM     10  H4  MOL d          36.795  37.384  -9.216  0.00  0.00     0.101 H 
BRANCH   9  11
ATOM     11  N   MOL d          37.108  35.473 -10.063  0.00  0.00    -0.065 N 
ATOM     12  H1  MOL d          37.426  36.029 -10.841  0.00  0.00     0.275 HD
ATOM     13  H2  MOL d          36.445  34.787 -10.389  0.00  0.00     0.275 HD
ATOM     14  H3  MOL d          37.895  35.006  -9.640  0.00  0.00     0.275 HD
ENDBRANCH   9  11
BRANCH   9  15
ATOM     15  CB  MOL d          35.062  36.310  -9.526  0.00  0.00    -0.005 C 
ATOM     16  H5  MOL d          34.528  35.533  -8.958  0.00  0.00     0.044 H 
ATOM     17  H6  MOL d          35.056  36.052 -10.595  0.00  0.00     0.044 H 
BRANCH  15  18
ATOM     18  CG  MOL d          34.327  37.634  -9.344  0.00  0.00    -0.056 A 
ATOM     19  CD1 MOL d          35.020  38.817  -9.636  0.00  0.00    -0.077 A 
ATOM     20  CE1 MOL d          34.309  40.005  -9.441  0.00  0.00    -0.082 A 
ATOM     21  H7  MOL d          36.044  38.812  -9.991  0.00  0.00     0.084 H 
ATOM     22  CZ  MOL d          32.991  40.031  -9.008  0.00  0.00    -0.083 A 
ATOM     23  H9  MOL d          34.809  40.947  -9.637  0.00  0.00     0.083 H 
ATOM     24  CE2 MOL d          32.380  38.824  -8.738  0.00  0.00    -0.082 A 
ATOM     25  H11 MOL d          32.460  40.968  -8.886  0.00  0.00     0.083 H 
ATOM     26  CD2 MOL d          33.033  37.673  -8.870  0.00  0.00    -0.077 A 
ATOM     27  H10 MOL d          31.346  38.814  -8.412  0.00  0.00     0.083 H 
ATOM     28  H8  MOL d          32.538  36.747  -8.599  0.00  0.00     0.084 H 
ENDBRANCH  15  18
ENDBRANCH   9  15
ENDBRANCH   6   9
ENDBRANCH   3   6
ENDBRANCH   1   3
BRANCH   1  29
ATOM     29  CB  MOL d          38.689  38.631  -5.040  0.00  0.00    -0.029 C 
ATOM     30  H15 MOL d          38.555  39.714  -4.895  0.00  0.00     0.041 H 
ATOM     31  H16 MOL d          39.528  38.454  -5.728  0.00  0.00     0.041 H 
BRANCH  29  32
ATOM     32  CG  MOL d          39.051  38.027  -3.701  0.00  0.00    -0.057 A 
ATOM     33  CD1 MOL d          38.243  38.208  -2.589  0.00  0.00    -0.077 A 
ATOM     34  CE1 MOL d          38.574  37.664  -1.364  0.00  0.00    -0.082 A 
ATOM     35  H17 MOL d          37.332  38.788  -2.684  0.00  0.00     0.084 H 
ATOM     36  CZ  MOL d          39.732  36.917  -1.257  0.00  0.00    -0.083 A 
ATOM     37  H19 MOL d          37.936  37.819  -0.501  0.00  0.00     0.083 H 
ATOM     38  CE2 MOL d          40.550  36.731  -2.359  0.00  0.00    -0.082 A 
ATOM     39  H21 MOL d          40.003  36.476  -0.305  0.00  0.00     0.083 H 
ATOM     40  CD2 MOL d          40.195  37.255  -3.586  0.00  0.00    -0.077 A 
ATOM     41  H20 MOL d          41.472  36.170  -2.258  0.00  0.00     0.083 H 
ATOM     42  H18 MOL d          40.811  37.063  -4.457  0.00  0.00     0.084 H 
ENDBRANCH  29  32
ENDBRANCH   1  29
BRANCH   1  43
ATOM     43  C   MOL d          36.295  39.134  -5.700  0.00  0.00     0.223 C 
ATOM     44  O   MOL d          35.205  38.959  -6.237  0.00  0.00    -0.273 OA
ATOM     45  N   MOL d          36.587  40.237  -5.053  0.00  0.00    -0.346 N 
ATOM     46  H22 MOL d          37.487  40.211  -4.619  0.00  0.00     0.163 HD
BRANCH  45  47
ATOM     47  CA  MOL d          35.885  41.484  -4.831  0.00  0.00     0.100 C 
ATOM     48  H23 MOL d          34.994  41.320  -4.208  0.00  0.00     0.090 H 
BRANCH  47  49
ATOM     49  CB  MOL d          36.832  42.412  -4.123  0.00  0.00    -0.013 C 
ATOM     50  H24 MOL d          36.603  43.414  -4.517  0.00  0.00     0.043 H 
ATOM     51  H25 MOL d          37.835  42.109  -4.454  0.00  0.00     0.043 H 
BRANCH  49  52
ATOM     52  CG  MOL d          36.944  42.589  -2.645  0.00  0.00    -0.056 A 
ATOM     53  CD1 MOL d          37.133  43.833  -2.077  0.00  0.00    -0.077 A 
ATOM     54  CE1 MOL d          37.216  44.025  -0.710  0.00  0.00    -0.082 A 
ATOM     55  H26 MOL d          37.221  44.694  -2.730  0.00  0.00     0.084 H 
ATOM     56  CZ  MOL d          37.108  42.921   0.119  0.00  0.00    -0.083 A 
ATOM     57  H28 MOL d          37.363  45.016  -0.296  0.00  0.00     0.083 H 
ATOM     58  CE2 MOL d          36.923  41.661  -0.428  0.00  0.00    -0.082 A 
ATOM     59  H30 MOL d          37.167  43.043   1.195  0.00  0.00     0.083 H 
ATOM     60  CD2 MOL d          36.837  41.493  -1.797  0.00  0.00    -0.077 A 
ATOM     61  H29 MOL d          36.845  40.799   0.224  0.00  0.00     0.083 H 
ATOM     62  H27 MOL d          36.686  40.503  -2.211  0.00  0.00     0.084 H 
ENDBRANCH  49  52
ENDBRANCH  47  49
BRANCH  47  63
ATOM     63  C   MOL d          35.461  42.024  -6.199  0.00  0.00     0.197 C 
ATOM     64  O   MOL d          36.354  42.275  -7.030  0.00  0.00    -0.646 OA
ATOM     65  OXT MOL d          34.264  42.179  -6.426  0.00  0.00    -0.646 OA
ENDBRANCH  47  63
ENDBRANCH  45  47
ENDBRANCH   1  43
TORSDOF 13
ENDMDL
MODEL 9
REMARK VINA RESULT:      -6.8      2.538      6.107
REMARK  13 active torsions:
REMARK  status: ('A' for Active; 'I' for Inactive)
REMARK    1  A    between atoms: CA_2  and  N_1 
REMARK    2  A    between atoms: P_3  and  CA_2 
REMARK    3  A    between atoms: CA_2  and  CB_6 
REMARK    4  A    between atoms: CM_13  and  P_3 
REMARK    5  A    between atoms: CB_6  and  CG_7 
REMARK    6  A    between atoms: CA_14  and  CM_13 
REMARK    7  A    between atoms: CA_14  and  CB_15 
REMARK    8  A    between atoms: C_22  and  CA_14 
REMARK    9  A    between atoms: CB_15  and  CG_16 
REMARK       I    between atoms: C_22  and  N_24 
REMARK   10  A    between atoms: N_24  and  CA_25 
REMARK   11  A    between atoms: CA_25  and  CB_28 
REMARK   12  A    between atoms: CA_25  and  C_26 
REMARK   13  A    between atoms: CB_28  and  CG_29 
ROOT
ATOM      1  CA  MOL d          38.628  38.450  -2.417  0.00  0.00     0.036 C 
ATOM      2  H14 MOL d          39.494  38.862  -2.957  0.00  0.00     0.056 H 
ENDROOT
BRANCH   1   3
ATOM      3  CM  MOL d          37.603  39.593  -2.287  0.00  0.00     0.021 C 
ATOM      4  H12 MOL d          36.598  39.144  -2.285  0.00  0.00     0.050 H 
ATOM      5  H13 MOL d          37.781  40.097  -1.325  0.00  0.00     0.050 H 
BRANCH   3   6
ATOM      6  P   MOL d          37.643  40.816  -3.551  0.00  0.00     0.138 P 
ATOM      7  O1P MOL d          37.471  40.184  -4.900  0.00  0.00    -0.666 OA
ATOM      8  O2P MOL d          38.923  41.551  -3.581  0.00  0.00    -0.666 OA
BRANCH   6   9
ATOM      9  CA  MOL d          36.375  41.822  -2.974  0.00  0.00     0.177 C 
ATOM     10  H4  MOL d          36.727  42.843  -3.180  0.00  0.00     0.101 H 
BRANCH   9  11
ATOM     11  N   MOL d          35.134  41.572  -3.742  0.00  0.00    -0.065 N 
ATOM     12  H1  MOL d          34.389  42.139  -3.369  0.00  0.00     0.275 HD
ATOM     13  H2  MOL d          34.884  40.598  -3.668  0.00  0.00     0.275 HD
ATOM     14  H3  MOL d          35.284  41.809  -4.710  0.00  0.00     0.275 HD
ENDBRANCH   9  11
BRANCH   9  15
ATOM     15  CB  MOL d          35.849  41.849  -1.600  0.00  0.00    -0.005 C 
ATOM     16  H5  MOL d          35.719  40.813  -1.256  0.00  0.00     0.044 H 
ATOM     17  H6  MOL d          34.874  42.357  -1.610  0.00  0.00     0.044 H 
BRANCH  15  18
ATOM     18  CG  MOL d          36.762  42.575  -0.617  0.00  0.00    -0.056 A 
ATOM     19  CD1 MOL d          37.318  43.800  -1.015  0.00  0.00    -0.077 A 
ATOM     20  CE1 MOL d          38.159  44.419  -0.086  0.00  0.00    -0.082 A 
ATOM     21  H7  MOL d          37.108  44.239  -1.983  0.00  0.00     0.084 H 
ATOM     22  CZ  MOL d          38.422  43.882   1.166  0.00  0.00    -0.083 A 
ATOM     23  H9  MOL d          38.625  45.360  -0.355  0.00  0.00     0.083 H 
ATOM     24  CE2 MOL d          37.841  42.671   1.481  0.00  0.00    -0.082 A 
ATOM     25  H11 MOL d          39.062  44.396   1.872  0.00  0.00     0.083 H 
ATOM     26  CD2 MOL d          37.068  42.028   0.610  0.00  0.00    -0.077 A 
ATOM     27  H10 MOL d          38.018  42.235   2.458  0.00  0.00     0.083 H 
ATOM     28  H8  MOL d          36.670  41.053   0.872  0.00  0.00     0.084 H 
ENDBRANCH  15  18
ENDBRANCH   9  15
ENDBRANCH   6   9
ENDBRANCH   3   6
ENDBRANCH   1   3
BRANCH   1  29
ATOM     29  CB  MOL d          39.110  38.038  -1.015  0.00  0.00    -0.029 C 
ATOM     30  H15 MOL d          38.223  37.787  -0.414  0.00  0.00     0.041 H 
ATOM     31  H16 MOL d          39.625  38.901  -0.568  0.00  0.00     0.041 H 
BRANCH  29  32
ATOM     32  CG  MOL d          40.054  36.857  -0.963  0.00  0.00    -0.057 A 
ATOM     33  CD1 MOL d          39.948  35.896   0.032  0.00  0.00    -0.077 A 
ATOM     34  CE1 MOL d          40.813  34.821   0.087  0.00  0.00    -0.082 A 
ATOM     35  H17 MOL d          39.171  35.992   0.781  0.00  0.00     0.084 H 
ATOM     36  CZ  MOL d          41.795  34.704  -0.879  0.00  0.00    -0.083 A 
ATOM     37  H19 MOL d          40.723  34.081   0.874  0.00  0.00     0.083 H 
ATOM     38  CE2 MOL d          41.913  35.658  -1.877  0.00  0.00    -0.082 A 
ATOM     39  H21 MOL d          42.476  33.862  -0.855  0.00  0.00     0.083 H 
ATOM     40  CD2 MOL d          41.026  36.714  -1.940  0.00  0.00    -0.077 A 
ATOM     41  H20 MOL d          42.706  35.574  -2.611  0.00  0.00     0.083 H 
ATOM     42  H18 MOL d          41.089  37.429  -2.752  0.00  0.00     0.084 H 
ENDBRANCH  29  32
ENDBRANCH   1  29
BRANCH   1  43
ATOM     43  C   MOL d          38.157  37.232  -3.220  0.00  0.00     0.223 C 
ATOM     44  O   MOL d          37.452  36.344  -2.748  0.00  0.00    -0.273 OA
ATOM     45  N   MOL d          38.549  37.222  -4.472  0.00  0.00    -0.346 N 
ATOM     46  H22 MOL d          39.068  38.037  -4.727  0.00  0.00     0.163 HD
BRANCH  45  47
ATOM     47  CA  MOL d          38.392  36.283  -5.564  0.00  0.00     0.100 C 
ATOM     48  H23 MOL d          37.624  35.535  -5.322  0.00  0.00     0.090 H 
BRANCH  47  49
ATOM     49  CB  MOL d          37.969  37.068  -6.773  0.00  0.00    -0.013 C 
ATOM     50  H24 MOL d          38.539  36.638  -7.611  0.00  0.00     0.043 H 
ATOM     51  H25 MOL d          38.313  38.096  -6.586  0.00  0.00     0.043 H 
BRANCH  49  52
ATOM     52  CG  MOL d          36.572  37.210  -7.281  0.00  0.00    -0.056 A 
ATOM     53  CD1 MOL d          35.891  36.143  -7.830  0.00  0.00    -0.077 A 
ATOM     54  CE1 MOL d          34.588  36.245  -8.286  0.00  0.00    -0.082 A 
ATOM     55  H26 MOL d          36.396  35.187  -7.908  0.00  0.00     0.084 H 
ATOM     56  CZ  MOL d          33.948  37.468  -8.188  0.00  0.00    -0.083 A 
ATOM     57  H28 MOL d          34.080  35.386  -8.709  0.00  0.00     0.083 H 
ATOM     58  CE2 MOL d          34.615  38.555  -7.645  0.00  0.00    -0.082 A 
ATOM     59  H30 MOL d          32.926  37.576  -8.535  0.00  0.00     0.083 H 
ATOM     60  CD2 MOL d          35.914  38.431  -7.191  0.00  0.00    -0.077 A 
ATOM     61  H29 MOL d          34.112  39.513  -7.576  0.00  0.00     0.083 H 
ATOM     62  H27 MOL d          36.421  39.288  -6.763  0.00  0.00     0.084 H 
ENDBRANCH  49  52
ENDBRANCH  47  49
BRANCH  47  63
ATOM     63  C   MOL d          39.739  35.586  -5.769  0.00  0.00     0.197 C 
ATOM     64  O   MOL d          40.119  34.781  -4.898  0.00  0.00    -0.646 OA
ATOM     65  OXT MOL d          40.386  35.840  -6.782  0.00  0.00    -0.646 OA
ENDBRANCH  47  63
ENDBRANCH  45  47
ENDBRANCH   1  43
TORSDOF 13
ENDMDL
MODEL 10
REMARK VINA RESULT:      -6.8      2.702      7.754
REMARK  13 active torsions:
REMARK  status: ('A' for Active; 'I' for Inactive)
REMARK    1  A    between atoms: CA_2  and  N_1 
REMARK    2  A    between atoms: P_3  and  CA_2 
REMARK    3  A    between atoms: CA_2  and  CB_6 
REMARK    4  A    between atoms: CM_13  and  P_3 
REMARK    5  A    between atoms: CB_6  and  CG_7 
REMARK    6  A    between atoms: CA_14  and  CM_13 
REMARK    7  A    between atoms: CA_14  and  CB_15 
REMARK    8  A    between atoms: C_22  and  CA_14 
REMARK    9  A    between atoms: CB_15  and  CG_16 
REMARK       I    between atoms: C_22  and  N_24 
REMARK   10  A    between atoms: N_24  and  CA_25 
REMARK   11  A    between atoms: CA_25  and  CB_28 
REMARK   12  A    between atoms: CA_25  and  C_26 
REMARK   13  A    between atoms: CB_28  and  CG_29 
ROOT
ATOM      1  CA  MOL d          37.286  37.443  -6.945  0.00  0.00     0.036 C 
ATOM      2  H14 MOL d          37.568  37.884  -7.913  0.00  0.00     0.056 H 
ENDROOT
BRANCH   1   3
ATOM      3  CM  MOL d          36.771  36.021  -7.239  0.00  0.00     0.021 C 
ATOM      4  H12 MOL d          37.214  35.342  -6.495  0.00  0.00     0.050 H 
ATOM      5  H13 MOL d          35.677  36.029  -7.123  0.00  0.00     0.050 H 
BRANCH   3   6
ATOM      6  P   MOL d          37.138  35.380  -8.836  0.00  0.00     0.138 P 
ATOM      7  O1P MOL d          38.056  34.199  -8.730  0.00  0.00    -0.666 OA
ATOM      8  O2P MOL d          37.812  36.372  -9.697  0.00  0.00    -0.666 OA
BRANCH   6   9
ATOM      9  CA  MOL d          35.531  35.096  -9.374  0.00  0.00     0.177 C 
ATOM     10  H4  MOL d          35.270  36.005  -9.934  0.00  0.00     0.101 H 
BRANCH   9  11
ATOM     11  N   MOL d          35.496  33.934 -10.290  0.00  0.00    -0.065 N 
ATOM     12  H1  MOL d          36.364  33.882 -10.800  0.00  0.00     0.275 HD
ATOM     13  H2  MOL d          34.732  34.041 -10.939  0.00  0.00     0.275 HD
ATOM     14  H3  MOL d          35.369  33.089  -9.757  0.00  0.00     0.275 HD
ENDBRANCH   9  11
BRANCH   9  15
ATOM     15  CB  MOL d          34.370  34.806  -8.517  0.00  0.00    -0.005 C 
ATOM     16  H5  MOL d          34.728  34.640  -7.490  0.00  0.00     0.044 H 
ATOM     17  H6  MOL d          33.882  33.893  -8.887  0.00  0.00     0.044 H 
BRANCH  15  18
ATOM     18  CG  MOL d          33.340  35.931  -8.494  0.00  0.00    -0.056 A 
ATOM     19  CD1 MOL d          32.868  36.416  -9.723  0.00  0.00    -0.077 A 
ATOM     20  CE1 MOL d          31.936  37.456  -9.651  0.00  0.00    -0.082 A 
ATOM     21  H7  MOL d          33.205  36.010 -10.669  0.00  0.00     0.084 H 
ATOM     22  CZ  MOL d          31.477  37.973  -8.448  0.00  0.00    -0.083 A 
ATOM     23  H9  MOL d          31.555  37.875 -10.575  0.00  0.00     0.083 H 
ATOM     24  CE2 MOL d          31.993  37.444  -7.282  0.00  0.00    -0.082 A 
ATOM     25  H11 MOL d          30.738  38.765  -8.424  0.00  0.00     0.083 H 
ATOM     26  CD2 MOL d          32.912  36.484  -7.306  0.00  0.00    -0.077 A 
ATOM     27  H10 MOL d          31.641  37.820  -6.328  0.00  0.00     0.083 H 
ATOM     28  H8  MOL d          33.334  36.128  -6.373  0.00  0.00     0.084 H 
ENDBRANCH  15  18
ENDBRANCH   9  15
ENDBRANCH   6   9
ENDBRANCH   3   6
ENDBRANCH   1   3
BRANCH   1  29
ATOM     29  CB  MOL d          36.139  38.290  -6.367  0.00  0.00    -0.029 C 
ATOM     30  H15 MOL d          36.567  38.970  -5.615  0.00  0.00     0.041 H 
ATOM     31  H16 MOL d          35.427  37.606  -5.880  0.00  0.00     0.041 H 
BRANCH  29  32
ATOM     32  CG  MOL d          35.369  39.128  -7.364  0.00  0.00    -0.057 A 
ATOM     33  CD1 MOL d          35.497  38.917  -8.728  0.00  0.00    -0.077 A 
ATOM     34  CE1 MOL d          34.802  39.685  -9.642  0.00  0.00    -0.082 A 
ATOM     35  H17 MOL d          36.156  38.134  -9.085  0.00  0.00     0.084 H 
ATOM     36  CZ  MOL d          33.957  40.675  -9.176  0.00  0.00    -0.083 A 
ATOM     37  H19 MOL d          34.916  39.514 -10.706  0.00  0.00     0.083 H 
ATOM     38  CE2 MOL d          33.822  40.897  -7.815  0.00  0.00    -0.082 A 
ATOM     39  H21 MOL d          33.397  41.281  -9.878  0.00  0.00     0.083 H 
ATOM     40  CD2 MOL d          34.500  40.105  -6.909  0.00  0.00    -0.077 A 
ATOM     41  H20 MOL d          33.182  41.696  -7.460  0.00  0.00     0.083 H 
ATOM     42  H18 MOL d          34.351  40.248  -5.845  0.00  0.00     0.084 H 
ENDBRANCH  29  32
ENDBRANCH   1  29
BRANCH   1  43
ATOM     43  C   MOL d          38.533  37.520  -6.055  0.00  0.00     0.223 C 
ATOM     44  O   MOL d          39.608  37.009  -6.355  0.00  0.00    -0.273 OA
ATOM     45  N   MOL d          38.367  38.202  -4.947  0.00  0.00    -0.346 N 
ATOM     46  H22 MOL d          37.457  38.606  -4.866  0.00  0.00     0.163 HD
BRANCH  45  47
ATOM     47  CA  MOL d          39.220  38.495  -3.814  0.00  0.00     0.100 C 
ATOM     48  H23 MOL d          40.265  38.240  -4.041  0.00  0.00     0.090 H 
BRANCH  47  49
ATOM     49  CB  MOL d          39.110  39.968  -3.538  0.00  0.00    -0.013 C 
ATOM     50  H24 MOL d          39.492  40.461  -4.444  0.00  0.00     0.043 H 
ATOM     51  H25 MOL d          39.798  40.157  -2.701  0.00  0.00     0.043 H 
BRANCH  49  52
ATOM     52  CG  MOL d          37.859  40.704  -3.189  0.00  0.00    -0.056 A 
ATOM     53  CD1 MOL d          37.462  40.875  -1.878  0.00  0.00    -0.077 A 
ATOM     54  CE1 MOL d          36.319  41.573  -1.530  0.00  0.00    -0.082 A 
ATOM     55  H26 MOL d          38.070  40.446  -1.090  0.00  0.00     0.084 H 
ATOM     56  CZ  MOL d          35.544  42.116  -2.540  0.00  0.00    -0.083 A 
ATOM     57  H28 MOL d          36.037  41.691  -0.490  0.00  0.00     0.083 H 
ATOM     58  CE2 MOL d          35.920  41.952  -3.864  0.00  0.00    -0.082 A 
ATOM     59  H30 MOL d          34.644  42.669  -2.295  0.00  0.00     0.083 H 
ATOM     60  CD2 MOL d          37.068  41.256  -4.190  0.00  0.00    -0.077 A 
ATOM     61  H29 MOL d          35.306  42.373  -4.652  0.00  0.00     0.083 H 
ATOM     62  H27 MOL d          37.353  41.141  -5.229  0.00  0.00     0.084 H 
ENDBRANCH  49  52
ENDBRANCH  47  49
BRANCH  47  63
ATOM     63  C   MOL d          38.730  37.648  -2.637  0.00  0.00     0.197 C 
ATOM     64  O   MOL d          39.298  37.791  -1.538  0.00  0.00    -0.646 OA
ATOM     65  OXT MOL d          37.797  36.870  -2.819  0.00  0.00    -0.646 OA
ENDBRANCH  47  63
ENDBRANCH  45  47
ENDBRANCH   1  43
TORSDOF 13
ENDMDL
