MODEL 1
REMARK VINA RESULT:      -7.0      0.000      0.000
REMARK  7 active torsions:
REMARK  status: ('A' for Active; 'I' for Inactive)
REMARK    1  A    between atoms: S1_2  and  N1_4 
REMARK    2  A    between atoms: S1_2  and  C3_10 
REMARK    3  A    between atoms: N1_4  and  C2_5 
REMARK    4  A    between atoms: C2_5  and  C10_6 
REMARK    5  A    between atoms: C2_5  and  C1_7 
REMARK    6  A    between atoms: C6_13  and  O5_16 
REMARK    7  A    between atoms: O5_16  and  C7_17 
ROOT
ATOM      1  C3  TBL d          -2.119  -6.030  -6.376  0.00  0.00     0.079 A 
ATOM      2  C4  TBL d          -2.149  -6.139  -7.765  0.00  0.00    -0.058 A 
ATOM      3  C5  TBL d          -3.370  -6.304  -8.444  0.00  0.00    -0.049 A 
ATOM      4  C6  TBL d          -4.587  -6.280  -7.752  0.00  0.00     0.068 A 
ATOM      5  C8  TBL d          -4.597  -6.176  -6.373  0.00  0.00    -0.049 A 
ATOM      6  C9  TBL d          -3.358  -6.056  -5.687  0.00  0.00    -0.058 A 
ATOM      7  H6  TBL d          -1.223  -6.097  -8.327  0.00  0.00     0.086 H 
ATOM      8  H7  TBL d          -3.368  -6.451  -9.518  0.00  0.00     0.087 H 
ATOM      9  H8  TBL d          -5.533  -6.185  -5.825  0.00  0.00     0.087 H 
ATOM     10  H9  TBL d          -3.360  -5.984  -4.606  0.00  0.00     0.086 H 
ENDROOT
BRANCH   1  11
ATOM     11  S1  TBL d          -0.689  -5.804  -5.632  0.00  0.00     0.259 S 
ATOM     12  O4  TBL d          -0.273  -7.095  -5.181  0.00  0.00    -0.201 OA
ATOM     13  O3  TBL d           0.161  -5.217  -6.635  0.00  0.00    -0.201 OA
BRANCH  11  14
ATOM     14  N1  TBL d          -0.762  -4.881  -4.313  0.00  0.00    -0.301 N 
ATOM     15  H1  TBL d          -0.971  -5.289  -3.423  0.00  0.00     0.173 HD
BRANCH  14  16
ATOM     16  C2  TBL d          -0.520  -3.434  -4.428  0.00  0.00     0.100 C 
ATOM     17  H2  TBL d           0.034  -3.243  -5.358  0.00  0.00     0.089 H 
BRANCH  16  18
ATOM     18  C10 TBL d           0.317  -2.951  -3.242  0.00  0.00    -0.048 C 
ATOM     19  H3  TBL d           0.731  -3.818  -2.707  0.00  0.00     0.030 H 
ATOM     20  H4  TBL d          -0.318  -2.368  -2.558  0.00  0.00     0.030 H 
ATOM     21  H5  TBL d           1.140  -2.319  -3.607  0.00  0.00     0.030 H 
ENDBRANCH  16  18
BRANCH  16  22
ATOM     22  C1  TBL d          -1.819  -2.673  -4.474  0.00  0.00     0.196 C 
ATOM     23  O2  TBL d          -2.840  -3.093  -3.966  0.00  0.00    -0.646 OA
ATOM     24  O1  TBL d          -1.854  -1.492  -5.089  0.00  0.00    -0.646 OA
ENDBRANCH  16  22
ENDBRANCH  14  16
ENDBRANCH  11  14
ENDBRANCH   1  11
BRANCH   4  25
ATOM     25  O5  TBL d          -5.755  -6.446  -8.479  0.00  0.00    -0.356 OA
BRANCH  25  26
ATOM     26  C7  TBL d          -5.827  -6.980  -9.793  0.00  0.00     0.010 C 
ATOM     27  H10 TBL d          -6.756  -6.643 -10.275  0.00  0.00     0.066 H 
ATOM     28  H11 TBL d          -5.818  -8.079  -9.743  0.00  0.00     0.066 H 
ATOM     29  H12 TBL d          -4.963  -6.631 -10.379  0.00  0.00     0.066 H 
ENDBRANCH  25  26
ENDBRANCH   4  25
TORSDOF 7
ENDMDL
MODEL 2
REMARK VINA RESULT:      -6.4      1.484      1.782
REMARK  7 active torsions:
REMARK  status: ('A' for Active; 'I' for Inactive)
REMARK    1  A    between atoms: S1_2  and  N1_4 
REMARK    2  A    between atoms: S1_2  and  C3_10 
REMARK    3  A    between atoms: N1_4  and  C2_5 
REMARK    4  A    between atoms: C2_5  and  C10_6 
REMARK    5  A    between atoms: C2_5  and  C1_7 
REMARK    6  A    between atoms: C6_13  and  O5_16 
REMARK    7  A    between atoms: O5_16  and  C7_17 
ROOT
ATOM      1  C3  TBL d          -2.310  -5.699  -6.471  0.00  0.00     0.079 A 
ATOM      2  C4  TBL d          -1.965  -5.784  -7.818  0.00  0.00    -0.058 A 
ATOM      3  C5  TBL d          -2.929  -6.123  -8.785  0.00  0.00    -0.049 A 
ATOM      4  C6  TBL d          -4.272  -6.303  -8.429  0.00  0.00     0.068 A 
ATOM      5  C8  TBL d          -4.651  -6.230  -7.101  0.00  0.00    -0.049 A 
ATOM      6  C9  TBL d          -3.664  -5.933  -6.123  0.00  0.00    -0.058 A 
ATOM      7  H6  TBL d          -0.944  -5.586  -8.125  0.00  0.00     0.086 H 
ATOM      8  H7  TBL d          -2.628  -6.247  -9.819  0.00  0.00     0.087 H 
ATOM      9  H8  TBL d          -5.683  -6.396  -6.812  0.00  0.00     0.087 H 
ATOM     10  H9  TBL d          -3.955  -5.883  -5.080  0.00  0.00     0.086 H 
ENDROOT
BRANCH   1  11
ATOM     11  S1  TBL d          -1.172  -5.268  -5.390  0.00  0.00     0.259 S 
ATOM     12  O4  TBL d          -1.781  -5.403  -4.104  0.00  0.00    -0.201 OA
ATOM     13  O3  TBL d          -0.074  -6.168  -5.631  0.00  0.00    -0.201 OA
BRANCH  11  14
ATOM     14  N1  TBL d          -0.703  -3.730  -5.494  0.00  0.00    -0.301 N 
ATOM     15  H1  TBL d          -0.055  -3.447  -6.202  0.00  0.00     0.173 HD
BRANCH  14  16
ATOM     16  C2  TBL d          -1.235  -2.746  -4.538  0.00  0.00     0.100 C 
ATOM     17  H2  TBL d          -2.229  -3.079  -4.206  0.00  0.00     0.089 H 
BRANCH  16  18
ATOM     18  C10 TBL d          -1.369  -1.381  -5.217  0.00  0.00    -0.048 C 
ATOM     19  H3  TBL d          -1.923  -1.494  -6.161  0.00  0.00     0.030 H 
ATOM     20  H4  TBL d          -0.368  -0.975  -5.425  0.00  0.00     0.030 H 
ATOM     21  H5  TBL d          -1.914  -0.693  -4.554  0.00  0.00     0.030 H 
ENDBRANCH  16  18
BRANCH  16  22
ATOM     22  C1  TBL d          -0.337  -2.625  -3.334  0.00  0.00     0.196 C 
ATOM     23  O2  TBL d           0.871  -2.730  -3.408  0.00  0.00    -0.646 OA
ATOM     24  O1  TBL d          -0.885  -2.389  -2.142  0.00  0.00    -0.646 OA
ENDBRANCH  16  22
ENDBRANCH  14  16
ENDBRANCH  11  14
ENDBRANCH   1  11
BRANCH   4  25
ATOM     25  O5  TBL d          -5.172  -6.635  -9.428  0.00  0.00    -0.356 OA
BRANCH  25  26
ATOM     26  C7  TBL d          -6.246  -7.552  -9.286  0.00  0.00     0.010 C 
ATOM     27  H10 TBL d          -5.848  -8.548  -9.041  0.00  0.00     0.066 H 
ATOM     28  H11 TBL d          -6.812  -7.604 -10.228  0.00  0.00     0.066 H 
ATOM     29  H12 TBL d          -6.912  -7.215  -8.477  0.00  0.00     0.066 H 
ENDBRANCH  25  26
ENDBRANCH   4  25
TORSDOF 7
ENDMDL
MODEL 3
REMARK VINA RESULT:      -5.5      1.920      3.179
REMARK  7 active torsions:
REMARK  status: ('A' for Active; 'I' for Inactive)
REMARK    1  A    between atoms: S1_2  and  N1_4 
REMARK    2  A    between atoms: S1_2  and  C3_10 
REMARK    3  A    between atoms: N1_4  and  C2_5 
REMARK    4  A    between atoms: C2_5  and  C10_6 
REMARK    5  A    between atoms: C2_5  and  C1_7 
REMARK    6  A    between atoms: C6_13  and  O5_16 
REMARK    7  A    between atoms: O5_16  and  C7_17 
ROOT
ATOM      1  C3  TBL d          -2.777  -5.138  -5.744  0.00  0.00     0.079 A 
ATOM      2  C4  TBL d          -2.139  -5.224  -6.979  0.00  0.00    -0.058 A 
ATOM      3  C5  TBL d          -2.784  -5.818  -8.079  0.00  0.00    -0.049 A 
ATOM      4  C6  TBL d          -4.109  -6.261  -7.983  0.00  0.00     0.068 A 
ATOM      5  C8  TBL d          -4.774  -6.195  -6.772  0.00  0.00    -0.049 A 
ATOM      6  C9  TBL d          -4.101  -5.637  -5.652  0.00  0.00    -0.058 A 
ATOM      7  H6  TBL d          -1.135  -4.830  -7.094  0.00  0.00     0.086 H 
ATOM      8  H7  TBL d          -2.248  -5.933  -9.014  0.00  0.00     0.087 H 
ATOM      9  H8  TBL d          -5.790  -6.561  -6.680  0.00  0.00     0.087 H 
ATOM     10  H9  TBL d          -4.615  -5.591  -4.698  0.00  0.00     0.086 H 
ENDROOT
BRANCH   1  11
ATOM     11  S1  TBL d          -2.008  -4.411  -4.506  0.00  0.00     0.259 S 
ATOM     12  O4  TBL d          -0.679  -4.157  -4.965  0.00  0.00    -0.201 OA
ATOM     13  O3  TBL d          -2.785  -3.230  -4.232  0.00  0.00    -0.201 OA
BRANCH  11  14
ATOM     14  N1  TBL d          -1.851  -5.328  -3.190  0.00  0.00    -0.301 N 
ATOM     15  H1  TBL d          -1.906  -4.917  -2.280  0.00  0.00     0.173 HD
BRANCH  14  16
ATOM     16  C2  TBL d          -1.625  -6.774  -3.339  0.00  0.00     0.100 C 
ATOM     17  H2  TBL d          -2.301  -7.158  -4.117  0.00  0.00     0.089 H 
BRANCH  16  18
ATOM     18  C10 TBL d          -1.930  -7.487  -2.019  0.00  0.00    -0.048 C 
ATOM     19  H3  TBL d          -0.987  -7.785  -1.537  0.00  0.00     0.030 H 
ATOM     20  H4  TBL d          -2.539  -8.382  -2.218  0.00  0.00     0.030 H 
ATOM     21  H5  TBL d          -2.482  -6.807  -1.355  0.00  0.00     0.030 H 
ENDBRANCH  16  18
BRANCH  16  22
ATOM     22  C1  TBL d          -0.204  -7.058  -3.750  0.00  0.00     0.196 C 
ATOM     23  O2  TBL d           0.713  -7.087  -2.953  0.00  0.00    -0.646 OA
ATOM     24  O1  TBL d           0.062  -7.290  -5.035  0.00  0.00    -0.646 OA
ENDBRANCH  16  22
ENDBRANCH  14  16
ENDBRANCH  11  14
ENDBRANCH   1  11
BRANCH   4  25
ATOM     25  O5  TBL d          -4.688  -6.835  -9.103  0.00  0.00    -0.356 OA
BRANCH  25  26
ATOM     26  C7  TBL d          -6.069  -7.132  -9.245  0.00  0.00     0.010 C 
ATOM     27  H10 TBL d          -6.484  -6.553 -10.082  0.00  0.00     0.066 H 
ATOM     28  H11 TBL d          -6.598  -6.866  -8.318  0.00  0.00     0.066 H 
ATOM     29  H12 TBL d          -6.195  -8.206  -9.444  0.00  0.00     0.066 H 
ENDBRANCH  25  26
ENDBRANCH   4  25
TORSDOF 7
ENDMDL
MODEL 4
REMARK VINA RESULT:      -5.1      1.402      2.818
REMARK  7 active torsions:
REMARK  status: ('A' for Active; 'I' for Inactive)
REMARK    1  A    between atoms: S1_2  and  N1_4 
REMARK    2  A    between atoms: S1_2  and  C3_10 
REMARK    3  A    between atoms: N1_4  and  C2_5 
REMARK    4  A    between atoms: C2_5  and  C10_6 
REMARK    5  A    between atoms: C2_5  and  C1_7 
REMARK    6  A    between atoms: C6_13  and  O5_16 
REMARK    7  A    between atoms: O5_16  and  C7_17 
ROOT
ATOM      1  C3  TBL d          -3.232  -5.073  -6.013  0.00  0.00     0.079 A 
ATOM      2  C4  TBL d          -2.559  -4.979  -7.229  0.00  0.00    -0.058 A 
ATOM      3  C5  TBL d          -3.061  -5.618  -8.377  0.00  0.00    -0.049 A 
ATOM      4  C6  TBL d          -4.288  -6.293  -8.346  0.00  0.00     0.068 A 
ATOM      5  C8  TBL d          -4.984  -6.409  -7.156  0.00  0.00    -0.049 A 
ATOM      6  C9  TBL d          -4.448  -5.802  -5.988  0.00  0.00    -0.058 A 
ATOM      7  H6  TBL d          -1.639  -4.409  -7.291  0.00  0.00     0.086 H 
ATOM      8  H7  TBL d          -2.491  -5.588  -9.298  0.00  0.00     0.087 H 
ATOM      9  H8  TBL d          -5.920  -6.954  -7.116  0.00  0.00     0.087 H 
ATOM     10  H9  TBL d          -4.985  -5.898  -5.052  0.00  0.00     0.086 H 
ENDROOT
BRANCH   1  11
ATOM     11  S1  TBL d          -2.636  -4.289  -4.716  0.00  0.00     0.259 S 
ATOM     12  O4  TBL d          -1.626  -3.411  -5.219  0.00  0.00    -0.201 OA
ATOM     13  O3  TBL d          -3.771  -3.624  -4.132  0.00  0.00    -0.201 OA
BRANCH  11  14
ATOM     14  N1  TBL d          -1.897  -5.239  -3.645  0.00  0.00    -0.301 N 
ATOM     15  H1  TBL d          -2.433  -5.789  -3.004  0.00  0.00     0.173 HD
BRANCH  14  16
ATOM     16  C2  TBL d          -0.427  -5.292  -3.618  0.00  0.00     0.100 C 
ATOM     17  H2  TBL d          -0.111  -5.876  -2.742  0.00  0.00     0.089 H 
BRANCH  16  18
ATOM     18  C10 TBL d           0.143  -3.876  -3.502  0.00  0.00    -0.048 C 
ATOM     19  H3  TBL d          -0.647  -3.189  -3.164  0.00  0.00     0.030 H 
ATOM     20  H4  TBL d           0.516  -3.549  -4.485  0.00  0.00     0.030 H 
ATOM     21  H5  TBL d           0.968  -3.871  -2.776  0.00  0.00     0.030 H 
ENDBRANCH  16  18
BRANCH  16  22
ATOM     22  C1  TBL d           0.111  -5.952  -4.861  0.00  0.00     0.196 C 
ATOM     23  O2  TBL d           0.621  -5.323  -5.766  0.00  0.00    -0.646 OA
ATOM     24  O1  TBL d           0.030  -7.278  -4.973  0.00  0.00    -0.646 OA
ENDBRANCH  16  22
ENDBRANCH  14  16
ENDBRANCH  11  14
ENDBRANCH   1  11
BRANCH   4  25
ATOM     25  O5  TBL d          -4.728  -6.900  -9.511  0.00  0.00    -0.356 OA
BRANCH  25  26
ATOM     26  C7  TBL d          -6.089  -7.063  -9.881  0.00  0.00     0.010 C 
ATOM     27  H10 TBL d          -6.348  -6.330 -10.659  0.00  0.00     0.066 H 
ATOM     28  H11 TBL d          -6.730  -6.904  -9.001  0.00  0.00     0.066 H 
ATOM     29  H12 TBL d          -6.245  -8.080 -10.270  0.00  0.00     0.066 H 
ENDBRANCH  25  26
ENDBRANCH   4  25
TORSDOF 7
ENDMDL
MODEL 5
REMARK VINA RESULT:      -5.1      1.878      2.983
REMARK  7 active torsions:
REMARK  status: ('A' for Active; 'I' for Inactive)
REMARK    1  A    between atoms: S1_2  and  N1_4 
REMARK    2  A    between atoms: S1_2  and  C3_10 
REMARK    3  A    between atoms: N1_4  and  C2_5 
REMARK    4  A    between atoms: C2_5  and  C10_6 
REMARK    5  A    between atoms: C2_5  and  C1_7 
REMARK    6  A    between atoms: C6_13  and  O5_16 
REMARK    7  A    between atoms: O5_16  and  C7_17 
ROOT
ATOM      1  C3  TBL d          -2.598  -5.382  -6.629  0.00  0.00     0.079 A 
ATOM      2  C4  TBL d          -3.872  -5.887  -6.378  0.00  0.00    -0.058 A 
ATOM      3  C5  TBL d          -4.693  -6.316  -7.436  0.00  0.00    -0.049 A 
ATOM      4  C6  TBL d          -4.223  -6.324  -8.755  0.00  0.00     0.068 A 
ATOM      5  C8  TBL d          -2.964  -5.828  -9.043  0.00  0.00    -0.049 A 
ATOM      6  C9  TBL d          -2.156  -5.352  -7.976  0.00  0.00    -0.058 A 
ATOM      7  H6  TBL d          -4.234  -5.948  -5.358  0.00  0.00     0.086 H 
ATOM      8  H7  TBL d          -5.705  -6.646  -7.227  0.00  0.00     0.087 H 
ATOM      9  H8  TBL d          -2.601  -5.804 -10.065  0.00  0.00     0.087 H 
ATOM     10  H9  TBL d          -1.173  -4.953  -8.198  0.00  0.00     0.086 H 
ENDROOT
BRANCH   1  11
ATOM     11  S1  TBL d          -1.666  -4.929  -5.373  0.00  0.00     0.259 S 
ATOM     12  O4  TBL d          -0.439  -5.647  -5.516  0.00  0.00    -0.201 OA
ATOM     13  O3  TBL d          -1.543  -3.500  -5.501  0.00  0.00    -0.201 OA
BRANCH  11  14
ATOM     14  N1  TBL d          -2.250  -5.340  -3.928  0.00  0.00    -0.301 N 
ATOM     15  H1  TBL d          -3.238  -5.381  -3.777  0.00  0.00     0.173 HD
BRANCH  14  16
ATOM     16  C2  TBL d          -1.317  -5.654  -2.835  0.00  0.00     0.100 C 
ATOM     17  H2  TBL d          -1.761  -5.320  -1.886  0.00  0.00     0.089 H 
BRANCH  16  18
ATOM     18  C10 TBL d           0.006  -4.916  -3.051  0.00  0.00    -0.048 C 
ATOM     19  H3  TBL d          -0.107  -3.864  -2.751  0.00  0.00     0.030 H 
ATOM     20  H4  TBL d           0.284  -4.967  -4.115  0.00  0.00     0.030 H 
ATOM     21  H5  TBL d           0.792  -5.388  -2.444  0.00  0.00     0.030 H 
ENDBRANCH  16  18
BRANCH  16  22
ATOM     22  C1  TBL d          -1.062  -7.136  -2.755  0.00  0.00     0.196 C 
ATOM     23  O2  TBL d          -1.960  -7.949  -2.650  0.00  0.00    -0.646 OA
ATOM     24  O1  TBL d           0.194  -7.579  -2.804  0.00  0.00    -0.646 OA
ENDBRANCH  16  22
ENDBRANCH  14  16
ENDBRANCH  11  14
ENDBRANCH   1  11
BRANCH   4  25
ATOM     25  O5  TBL d          -5.081  -6.761  -9.751  0.00  0.00    -0.356 OA
BRANCH  25  26
ATOM     26  C7  TBL d          -6.245  -7.544  -9.538  0.00  0.00     0.010 C 
ATOM     27  H10 TBL d          -7.083  -6.888  -9.261  0.00  0.00     0.066 H 
ATOM     28  H11 TBL d          -6.060  -8.264  -8.727  0.00  0.00     0.066 H 
ATOM     29  H12 TBL d          -6.496  -8.088 -10.461  0.00  0.00     0.066 H 
ENDBRANCH  25  26
ENDBRANCH   4  25
TORSDOF 7
ENDMDL
MODEL 6
REMARK VINA RESULT:      -4.9      2.169      5.754
REMARK  7 active torsions:
REMARK  status: ('A' for Active; 'I' for Inactive)
REMARK    1  A    between atoms: S1_2  and  N1_4 
REMARK    2  A    between atoms: S1_2  and  C3_10 
REMARK    3  A    between atoms: N1_4  and  C2_5 
REMARK    4  A    between atoms: C2_5  and  C10_6 
REMARK    5  A    between atoms: C2_5  and  C1_7 
REMARK    6  A    between atoms: C6_13  and  O5_16 
REMARK    7  A    between atoms: O5_16  and  C7_17 
ROOT
ATOM      1  C3  TBL d          -0.970  -5.597  -3.805  0.00  0.00     0.079 A 
ATOM      2  C4  TBL d          -0.056  -4.764  -4.447  0.00  0.00    -0.058 A 
ATOM      3  C5  TBL d           0.258  -3.501  -3.914  0.00  0.00    -0.049 A 
ATOM      4  C6  TBL d          -0.273  -3.085  -2.687  0.00  0.00     0.068 A 
ATOM      5  C8  TBL d          -1.186  -3.884  -2.022  0.00  0.00    -0.049 A 
ATOM      6  C9  TBL d          -1.536  -5.140  -2.589  0.00  0.00    -0.058 A 
ATOM      7  H6  TBL d           0.416  -5.092  -5.366  0.00  0.00     0.086 H 
ATOM      8  H7  TBL d           0.922  -2.841  -4.460  0.00  0.00     0.087 H 
ATOM      9  H8  TBL d          -1.625  -3.559  -1.085  0.00  0.00     0.087 H 
ATOM     10  H9  TBL d          -2.258  -5.765  -2.076  0.00  0.00     0.086 H 
ENDROOT
BRANCH   1  11
ATOM     11  S1  TBL d          -1.279  -7.066  -4.437  0.00  0.00     0.259 S 
ATOM     12  O4  TBL d          -0.006  -7.633  -4.752  0.00  0.00    -0.201 OA
ATOM     13  O3  TBL d          -2.009  -7.763  -3.410  0.00  0.00    -0.201 OA
BRANCH  11  14
ATOM     14  N1  TBL d          -2.102  -7.035  -5.822  0.00  0.00    -0.301 N 
ATOM     15  H1  TBL d          -2.156  -7.854  -6.395  0.00  0.00     0.173 HD
BRANCH  14  16
ATOM     16  C2  TBL d          -2.772  -5.793  -6.238  0.00  0.00     0.100 C 
ATOM     17  H2  TBL d          -2.477  -4.987  -5.551  0.00  0.00     0.089 H 
BRANCH  16  18
ATOM     18  C10 TBL d          -4.290  -5.973  -6.170  0.00  0.00    -0.048 C 
ATOM     19  H3  TBL d          -4.741  -5.105  -5.668  0.00  0.00     0.030 H 
ATOM     20  H4  TBL d          -4.526  -6.887  -5.605  0.00  0.00     0.030 H 
ATOM     21  H5  TBL d          -4.695  -6.057  -7.189  0.00  0.00     0.030 H 
ENDBRANCH  16  18
BRANCH  16  22
ATOM     22  C1  TBL d          -2.371  -5.407  -7.638  0.00  0.00     0.196 C 
ATOM     23  O2  TBL d          -3.185  -5.141  -8.500  0.00  0.00    -0.646 OA
ATOM     24  O1  TBL d          -1.076  -5.350  -7.945  0.00  0.00    -0.646 OA
ENDBRANCH  16  22
ENDBRANCH  14  16
ENDBRANCH  11  14
ENDBRANCH   1  11
BRANCH   4  25
ATOM     25  O5  TBL d           0.077  -1.830  -2.215  0.00  0.00    -0.356 OA
BRANCH  25  26
ATOM     26  C7  TBL d           1.409  -1.365  -2.051  0.00  0.00     0.010 C 
ATOM     27  H10 TBL d           2.108  -2.204  -2.172  0.00  0.00     0.066 H 
ATOM     28  H11 TBL d           1.524  -0.933  -1.045  0.00  0.00     0.066 H 
ATOM     29  H12 TBL d           1.624  -0.595  -2.807  0.00  0.00     0.066 H 
ENDBRANCH  25  26
ENDBRANCH   4  25
TORSDOF 7
ENDMDL
MODEL 7
REMARK VINA RESULT:      -4.7      1.295      1.784
REMARK  7 active torsions:
REMARK  status: ('A' for Active; 'I' for Inactive)
REMARK    1  A    between atoms: S1_2  and  N1_4 
REMARK    2  A    between atoms: S1_2  and  C3_10 
REMARK    3  A    between atoms: N1_4  and  C2_5 
REMARK    4  A    between atoms: C2_5  and  C10_6 
REMARK    5  A    between atoms: C2_5  and  C1_7 
REMARK    6  A    between atoms: C6_13  and  O5_16 
REMARK    7  A    between atoms: O5_16  and  C7_17 
ROOT
ATOM      1  C3  TBL d          -1.321  -5.606  -5.815  0.00  0.00     0.079 A 
ATOM      2  C4  TBL d          -2.382  -6.414  -5.414  0.00  0.00    -0.058 A 
ATOM      3  C5  TBL d          -3.517  -6.564  -6.232  0.00  0.00    -0.049 A 
ATOM      4  C6  TBL d          -3.573  -5.974  -7.501  0.00  0.00     0.068 A 
ATOM      5  C8  TBL d          -2.539  -5.163  -7.932  0.00  0.00    -0.049 A 
ATOM      6  C9  TBL d          -1.415  -4.977  -7.082  0.00  0.00    -0.058 A 
ATOM      7  H6  TBL d          -2.334  -6.931  -4.463  0.00  0.00     0.086 H 
ATOM      8  H7  TBL d          -4.360  -7.145  -5.875  0.00  0.00     0.087 H 
ATOM      9  H8  TBL d          -2.585  -4.679  -8.901  0.00  0.00     0.087 H 
ATOM     10  H9  TBL d          -0.607  -4.334  -7.412  0.00  0.00     0.086 H 
ENDROOT
BRANCH   1  11
ATOM     11  S1  TBL d          -0.011  -5.487  -4.855  0.00  0.00     0.259 S 
ATOM     12  O4  TBL d           0.101  -6.746  -4.188  0.00  0.00    -0.201 OA
ATOM     13  O3  TBL d           1.076  -5.183  -5.749  0.00  0.00    -0.201 OA
BRANCH  11  14
ATOM     14  N1  TBL d          -0.138  -4.382  -3.689  0.00  0.00    -0.301 N 
ATOM     15  H1  TBL d           0.343  -4.508  -2.821  0.00  0.00     0.173 HD
BRANCH  14  16
ATOM     16  C2  TBL d          -0.966  -3.187  -3.913  0.00  0.00     0.100 C 
ATOM     17  H2  TBL d          -1.145  -3.079  -4.992  0.00  0.00     0.089 H 
BRANCH  16  18
ATOM     18  C10 TBL d          -0.234  -1.943  -3.404  0.00  0.00    -0.048 C 
ATOM     19  H3  TBL d          -0.968  -1.195  -3.071  0.00  0.00     0.030 H 
ATOM     20  H4  TBL d           0.379  -1.521  -4.214  0.00  0.00     0.030 H 
ATOM     21  H5  TBL d           0.415  -2.220  -2.560  0.00  0.00     0.030 H 
ENDBRANCH  16  18
BRANCH  16  22
ATOM     22  C1  TBL d          -2.294  -3.313  -3.213  0.00  0.00     0.196 C 
ATOM     23  O2  TBL d          -2.407  -3.221  -2.006  0.00  0.00    -0.646 OA
ATOM     24  O1  TBL d          -3.389  -3.530  -3.940  0.00  0.00    -0.646 OA
ENDBRANCH  16  22
ENDBRANCH  14  16
ENDBRANCH  11  14
ENDBRANCH   1  11
BRANCH   4  25
ATOM     25  O5  TBL d          -4.717  -6.162  -8.258  0.00  0.00    -0.356 OA
BRANCH  25  26
ATOM     26  C7  TBL d          -5.967  -6.604  -7.750  0.00  0.00     0.010 C 
ATOM     27  H10 TBL d          -6.673  -6.744  -8.582  0.00  0.00     0.066 H 
ATOM     28  H11 TBL d          -6.366  -5.852  -7.053  0.00  0.00     0.066 H 
ATOM     29  H12 TBL d          -5.831  -7.559  -7.221  0.00  0.00     0.066 H 
ENDBRANCH  25  26
ENDBRANCH   4  25
TORSDOF 7
ENDMDL
MODEL 8
REMARK VINA RESULT:      -4.4      2.235      5.697
REMARK  7 active torsions:
REMARK  status: ('A' for Active; 'I' for Inactive)
REMARK    1  A    between atoms: S1_2  and  N1_4 
REMARK    2  A    between atoms: S1_2  and  C3_10 
REMARK    3  A    between atoms: N1_4  and  C2_5 
REMARK    4  A    between atoms: C2_5  and  C10_6 
REMARK    5  A    between atoms: C2_5  and  C1_7 
REMARK    6  A    between atoms: C6_13  and  O5_16 
REMARK    7  A    between atoms: O5_16  and  C7_17 
ROOT
ATOM      1  C3  TBL d          -2.108  -5.200  -4.871  0.00  0.00     0.079 A 
ATOM      2  C4  TBL d          -0.938  -5.443  -4.155  0.00  0.00    -0.058 A 
ATOM      3  C5  TBL d          -0.203  -4.380  -3.600  0.00  0.00    -0.049 A 
ATOM      4  C6  TBL d          -0.671  -3.062  -3.682  0.00  0.00     0.068 A 
ATOM      5  C8  TBL d          -1.827  -2.781  -4.387  0.00  0.00    -0.049 A 
ATOM      6  C9  TBL d          -2.541  -3.855  -4.986  0.00  0.00    -0.058 A 
ATOM      7  H6  TBL d          -0.590  -6.462  -4.024  0.00  0.00     0.086 H 
ATOM      8  H7  TBL d           0.737  -4.583  -3.102  0.00  0.00     0.087 H 
ATOM      9  H8  TBL d          -2.182  -1.761  -4.481  0.00  0.00     0.087 H 
ATOM     10  H9  TBL d          -3.442  -3.638  -5.548  0.00  0.00     0.086 H 
ENDROOT
BRANCH   1  11
ATOM     11  S1  TBL d          -2.947  -6.462  -5.466  0.00  0.00     0.259 S 
ATOM     12  O4  TBL d          -2.490  -7.610  -4.749  0.00  0.00    -0.201 OA
ATOM     13  O3  TBL d          -4.329  -6.125  -5.241  0.00  0.00    -0.201 OA
BRANCH  11  14
ATOM     14  N1  TBL d          -2.666  -6.775  -7.022  0.00  0.00    -0.301 N 
ATOM     15  H1  TBL d          -2.087  -7.548  -7.284  0.00  0.00     0.173 HD
BRANCH  14  16
ATOM     16  C2  TBL d          -3.266  -5.914  -8.052  0.00  0.00     0.100 C 
ATOM     17  H2  TBL d          -4.032  -5.281  -7.581  0.00  0.00     0.089 H 
BRANCH  16  18
ATOM     18  C10 TBL d          -3.928  -6.776  -9.130  0.00  0.00    -0.048 C 
ATOM     19  H3  TBL d          -3.787  -7.840  -8.886  0.00  0.00     0.030 H 
ATOM     20  H4  TBL d          -3.469  -6.560 -10.106  0.00  0.00     0.030 H 
ATOM     21  H5  TBL d          -5.003  -6.549  -9.172  0.00  0.00     0.030 H 
ENDBRANCH  16  18
BRANCH  16  22
ATOM     22  C1  TBL d          -2.227  -5.025  -8.684  0.00  0.00     0.196 C 
ATOM     23  O2  TBL d          -1.046  -5.102  -8.406  0.00  0.00    -0.646 OA
ATOM     24  O1  TBL d          -2.611  -4.123  -9.587  0.00  0.00    -0.646 OA
ENDBRANCH  16  22
ENDBRANCH  14  16
ENDBRANCH  11  14
ENDBRANCH   1  11
BRANCH   4  25
ATOM     25  O5  TBL d           0.099  -2.060  -3.114  0.00  0.00    -0.356 OA
BRANCH  25  26
ATOM     26  C7  TBL d           1.510  -1.956  -3.222  0.00  0.00     0.010 C 
ATOM     27  H10 TBL d           1.769  -1.038  -3.770  0.00  0.00     0.066 H 
ATOM     28  H11 TBL d           1.901  -2.829  -3.765  0.00  0.00     0.066 H 
ATOM     29  H12 TBL d           1.954  -1.919  -2.216  0.00  0.00     0.066 H 
ENDBRANCH  25  26
ENDBRANCH   4  25
TORSDOF 7
ENDMDL
