MODEL 1
REMARK VINA RESULT:      -7.2      0.000      0.000
REMARK  5 active torsions:
REMARK  status: ('A' for Active; 'I' for Inactive)
REMARK    1  A    between atoms: C2_2  and  O2_12 
REMARK    2  A    between atoms: C3_4  and  O3_11 
REMARK    3  A    between atoms: C4_5  and  O4_13 
REMARK    4  A    between atoms: C5_6  and  C6_7 
REMARK    5  A    between atoms: C6_7  and  O6_14 
ROOT
ATOM      1  C1  GIM d          30.174  65.852   9.821  0.00  0.00     0.138 A 
ATOM      2  C2  GIM d          31.476  65.299   9.240  0.00  0.00     0.119 C 
ATOM      3  N10 GIM d          29.306  66.515   8.973  0.00  0.00    -0.332 N 
ATOM      4  C3  GIM d          32.034  66.349   8.277  0.00  0.00     0.093 C 
ATOM      5  C4  GIM d          31.052  66.501   7.131  0.00  0.00     0.085 C 
ATOM      6  C5  GIM d          29.617  66.844   7.574  0.00  0.00     0.065 C 
ATOM      7  C7  GIM d          28.478  66.455  10.992  0.00  0.00     0.019 A 
ATOM      8  C8  GIM d          28.232  66.845   9.740  0.00  0.00    -0.001 A 
ATOM      9  N1  GIM d          29.670  65.831  11.035  0.00  0.00    -0.243 NA
ATOM     10  H1  GIM d          31.225  64.401   8.659  0.00  0.00     0.099 H 
ATOM     11  H2  GIM d          32.199  67.313   8.781  0.00  0.00     0.091 H 
ATOM     12  H3  GIM d          31.034  65.558   6.566  0.00  0.00     0.090 H 
ATOM     13  H4  GIM d          29.470  67.927   7.452  0.00  0.00     0.080 H 
ATOM     14  H7  GIM d          27.819  66.617  11.844  0.00  0.00     0.117 H 
ATOM     15  H8  GIM d          27.328  67.342   9.392  0.00  0.00     0.113 H 
ENDROOT
BRANCH   6  16
ATOM     16  C6  GIM d          28.668  66.091   6.601  0.00  0.00     0.038 C 
ATOM     17  H5  GIM d          28.519  66.692   5.692  0.00  0.00     0.077 H 
ATOM     18  H6  GIM d          27.697  65.920   7.091  0.00  0.00     0.077 H 
BRANCH  16  19
ATOM     19  O6  GIM d          29.259  64.829   6.253  0.00  0.00    -0.399 OA
ATOM     20  H12 GIM d          29.105  64.204   6.952  0.00  0.00     0.209 HD
ENDBRANCH  16  19
ENDBRANCH   6  16
BRANCH   5  21
ATOM     21  O4  GIM d          31.472  67.572   6.275  0.00  0.00    -0.391 OA
ATOM     22  H11 GIM d          30.987  68.359   6.493  0.00  0.00     0.210 HD
ENDBRANCH   5  21
BRANCH   4  23
ATOM     23  O3  GIM d          33.284  65.791   7.774  0.00  0.00    -0.390 OA
ATOM     24  H9  GIM d          34.009  66.334   8.059  0.00  0.00     0.210 HD
ENDBRANCH   4  23
BRANCH   2  25
ATOM     25  O2  GIM d          32.428  64.907  10.196  0.00  0.00    -0.385 OA
ATOM     26  H10 GIM d          31.993  64.449  10.905  0.00  0.00     0.210 HD
ENDBRANCH   2  25
TORSDOF 5
ENDMDL
MODEL 2
REMARK VINA RESULT:      -6.1      1.640      3.464
REMARK  5 active torsions:
REMARK  status: ('A' for Active; 'I' for Inactive)
REMARK    1  A    between atoms: C2_2  and  O2_12 
REMARK    2  A    between atoms: C3_4  and  O3_11 
REMARK    3  A    between atoms: C4_5  and  O4_13 
REMARK    4  A    between atoms: C5_6  and  C6_7 
REMARK    5  A    between atoms: C6_7  and  O6_14 
ROOT
ATOM      1  C1  GIM d          29.379  66.362   7.363  0.00  0.00     0.138 A 
ATOM      2  C2  GIM d          30.850  66.771   7.265  0.00  0.00     0.119 C 
ATOM      3  N10 GIM d          28.910  65.884   8.573  0.00  0.00    -0.332 N 
ATOM      4  C3  GIM d          31.671  65.724   8.019  0.00  0.00     0.093 C 
ATOM      5  C4  GIM d          31.277  65.787   9.483  0.00  0.00     0.085 C 
ATOM      6  C5  GIM d          29.768  65.613   9.736  0.00  0.00     0.065 C 
ATOM      7  C7  GIM d          27.294  65.916   7.106  0.00  0.00     0.019 A 
ATOM      8  C8  GIM d          27.585  65.651   8.381  0.00  0.00    -0.001 A 
ATOM      9  N1  GIM d          28.401  66.368   6.486  0.00  0.00    -0.243 NA
ATOM     10  H1  GIM d          30.962  67.733   7.785  0.00  0.00     0.099 H 
ATOM     11  H2  GIM d          31.510  64.714   7.614  0.00  0.00     0.091 H 
ATOM     12  H3  GIM d          31.596  66.760   9.883  0.00  0.00     0.090 H 
ATOM     13  H4  GIM d          29.589  64.571  10.040  0.00  0.00     0.080 H 
ATOM     14  H7  GIM d          26.318  65.788   6.641  0.00  0.00     0.117 H 
ATOM     15  H8  GIM d          26.880  65.307   9.137  0.00  0.00     0.113 H 
ENDROOT
BRANCH   6  16
ATOM     16  C6  GIM d          29.413  66.553  10.921  0.00  0.00     0.038 C 
ATOM     17  H5  GIM d          29.182  67.558  10.538  0.00  0.00     0.077 H 
ATOM     18  H6  GIM d          30.265  66.612  11.614  0.00  0.00     0.077 H 
BRANCH  16  19
ATOM     19  O6  GIM d          28.267  66.026  11.610  0.00  0.00    -0.399 OA
ATOM     20  H12 GIM d          28.073  65.157  11.279  0.00  0.00     0.209 HD
ENDBRANCH  16  19
ENDBRANCH   6  16
BRANCH   5  21
ATOM     21  O4  GIM d          31.927  64.729  10.202  0.00  0.00    -0.391 OA
ATOM     22  H11 GIM d          31.294  64.290  10.757  0.00  0.00     0.210 HD
ENDBRANCH   5  21
BRANCH   4  23
ATOM     23  O3  GIM d          33.061  66.139   7.873  0.00  0.00    -0.390 OA
ATOM     24  H9  GIM d          33.125  66.792   7.185  0.00  0.00     0.210 HD
ENDBRANCH   4  23
BRANCH   2  25
ATOM     25  O2  GIM d          31.322  66.963   5.956  0.00  0.00    -0.385 OA
ATOM     26  H10 GIM d          30.846  67.678   5.551  0.00  0.00     0.210 HD
ENDBRANCH   2  25
TORSDOF 5
ENDMDL
MODEL 3
REMARK VINA RESULT:      -4.7      1.687      3.619
REMARK  5 active torsions:
REMARK  status: ('A' for Active; 'I' for Inactive)
REMARK    1  A    between atoms: C2_2  and  O2_12 
REMARK    2  A    between atoms: C3_4  and  O3_11 
REMARK    3  A    between atoms: C4_5  and  O4_13 
REMARK    4  A    between atoms: C5_6  and  C6_7 
REMARK    5  A    between atoms: C6_7  and  O6_14 
ROOT
ATOM      1  C1  GIM d          29.939  66.320   7.483  0.00  0.00     0.138 A 
ATOM      2  C2  GIM d          31.302  66.341   8.178  0.00  0.00     0.119 C 
ATOM      3  N10 GIM d          28.813  66.094   8.253  0.00  0.00    -0.332 N 
ATOM      4  C3  GIM d          31.315  65.202   9.199  0.00  0.00     0.093 C 
ATOM      5  C4  GIM d          30.263  65.504  10.250  0.00  0.00     0.085 C 
ATOM      6  C5  GIM d          28.852  65.735   9.678  0.00  0.00     0.065 C 
ATOM      7  C7  GIM d          28.245  66.382   6.165  0.00  0.00     0.019 A 
ATOM      8  C8  GIM d          27.763  66.179   7.392  0.00  0.00    -0.001 A 
ATOM      9  N1  GIM d          29.586  66.483   6.227  0.00  0.00    -0.243 NA
ATOM     10  H1  GIM d          31.381  67.292   8.724  0.00  0.00     0.099 H 
ATOM     11  H2  GIM d          31.125  64.229   8.723  0.00  0.00     0.091 H 
ATOM     12  H3  GIM d          30.575  66.403  10.801  0.00  0.00     0.090 H 
ATOM     13  H4  GIM d          28.277  64.804   9.797  0.00  0.00     0.080 H 
ATOM     14  H7  GIM d          27.648  66.454   5.257  0.00  0.00     0.117 H 
ATOM     15  H8  GIM d          26.710  66.096   7.659  0.00  0.00     0.113 H 
ENDROOT
BRANCH   6  16
ATOM     16  C6  GIM d          28.203  66.845  10.550  0.00  0.00     0.038 C 
ATOM     17  H5  GIM d          27.295  66.454  11.031  0.00  0.00     0.077 H 
ATOM     18  H6  GIM d          27.941  67.706   9.916  0.00  0.00     0.077 H 
BRANCH  16  19
ATOM     19  O6  GIM d          29.142  67.258  11.557  0.00  0.00    -0.399 OA
ATOM     20  H12 GIM d          29.207  68.206  11.559  0.00  0.00     0.209 HD
ENDBRANCH  16  19
ENDBRANCH   6  16
BRANCH   5  21
ATOM     21  O4  GIM d          30.152  64.394  11.152  0.00  0.00    -0.391 OA
ATOM     22  H11 GIM d          30.075  64.718  12.042  0.00  0.00     0.210 HD
ENDBRANCH   5  21
BRANCH   4  23
ATOM     23  O3  GIM d          32.638  65.244   9.811  0.00  0.00    -0.390 OA
ATOM     24  H9  GIM d          32.548  65.247  10.757  0.00  0.00     0.210 HD
ENDBRANCH   4  23
BRANCH   2  25
ATOM     25  O2  GIM d          32.406  66.281   7.311  0.00  0.00    -0.385 OA
ATOM     26  H10 GIM d          32.320  65.525   6.743  0.00  0.00     0.210 HD
ENDBRANCH   2  25
TORSDOF 5
ENDMDL
MODEL 4
REMARK VINA RESULT:      -4.5      1.393      3.407
REMARK  5 active torsions:
REMARK  status: ('A' for Active; 'I' for Inactive)
REMARK    1  A    between atoms: C2_2  and  O2_12 
REMARK    2  A    between atoms: C3_4  and  O3_11 
REMARK    3  A    between atoms: C4_5  and  O4_13 
REMARK    4  A    between atoms: C5_6  and  C6_7 
REMARK    5  A    between atoms: C6_7  and  O6_14 
ROOT
ATOM      1  C1  GIM d          28.929  65.956   8.534  0.00  0.00     0.138 A 
ATOM      2  C2  GIM d          29.492  66.937   7.504  0.00  0.00     0.119 C 
ATOM      3  N10 GIM d          29.805  65.364   9.425  0.00  0.00    -0.332 N 
ATOM      4  C3  GIM d          30.804  66.350   6.979  0.00  0.00     0.093 C 
ATOM      5  C4  GIM d          31.784  66.288   8.134  0.00  0.00     0.085 C 
ATOM      6  C5  GIM d          31.266  65.510   9.358  0.00  0.00     0.065 C 
ATOM      7  C7  GIM d          27.769  64.676   9.810  0.00  0.00     0.019 A 
ATOM      8  C8  GIM d          29.031  64.595  10.236  0.00  0.00    -0.001 A 
ATOM      9  N1  GIM d          27.708  65.528   8.769  0.00  0.00    -0.243 NA
ATOM     10  H1  GIM d          29.723  67.874   8.031  0.00  0.00     0.099 H 
ATOM     11  H2  GIM d          30.654  65.352   6.539  0.00  0.00     0.091 H 
ATOM     12  H3  GIM d          32.020  67.318   8.440  0.00  0.00     0.090 H 
ATOM     13  H4  GIM d          31.696  64.498   9.328  0.00  0.00     0.080 H 
ATOM     14  H7  GIM d          26.923  64.139  10.236  0.00  0.00     0.117 H 
ATOM     15  H8  GIM d          29.380  64.012  11.088  0.00  0.00     0.113 H 
ENDROOT
BRANCH   6  16
ATOM     16  C6  GIM d          31.809  66.253  10.610  0.00  0.00     0.038 C 
ATOM     17  H5  GIM d          31.117  66.109  11.453  0.00  0.00     0.077 H 
ATOM     18  H6  GIM d          31.900  67.328  10.390  0.00  0.00     0.077 H 
BRANCH  16  19
ATOM     19  O6  GIM d          33.099  65.720  10.949  0.00  0.00    -0.399 OA
ATOM     20  H12 GIM d          33.109  64.785  10.778  0.00  0.00     0.209 HD
ENDBRANCH  16  19
ENDBRANCH   6  16
BRANCH   5  21
ATOM     21  O4  GIM d          32.982  65.620   7.714  0.00  0.00    -0.391 OA
ATOM     22  H11 GIM d          33.582  65.555   8.448  0.00  0.00     0.210 HD
ENDBRANCH   5  21
BRANCH   4  23
ATOM     23  O3  GIM d          31.285  67.301   5.984  0.00  0.00    -0.390 OA
ATOM     24  H9  GIM d          31.263  66.897   5.125  0.00  0.00     0.210 HD
ENDBRANCH   4  23
BRANCH   2  25
ATOM     25  O2  GIM d          28.611  67.267   6.461  0.00  0.00    -0.385 OA
ATOM     26  H10 GIM d          28.569  68.212   6.371  0.00  0.00     0.210 HD
ENDBRANCH   2  25
TORSDOF 5
ENDMDL
