MODEL 1
REMARK VINA RESULT:      -7.6      0.000      0.000
REMARK  12 active torsions:
REMARK  status: ('A' for Active; 'I' for Inactive)
REMARK    1  A    between atoms: C6_6  and  O19_13 
REMARK    2  A    between atoms: C10_7  and  C13_10 
REMARK    3  A    between atoms: C11_8  and  C14_11 
REMARK    4  A    between atoms: N12_9  and  C18_12 
REMARK    5  A    between atoms: C18_12  and  C24_18 
REMARK    6  A    between atoms: O19_13  and  C20_14 
REMARK    7  A    between atoms: C28_20  and  O36_25 
REMARK    8  A    between atoms: O36_25  and  C37_26 
REMARK    9  A    between atoms: C37_26  and  C38_27 
REMARK   10  A    between atoms: C37_26  and  C42_28 
REMARK   11  A    between atoms: C51_36  and  O57_39 
REMARK   12  A    between atoms: O57_39  and  C58_40 
ROOT
ATOM      1  C1  C03 d          17.767   5.368  14.675  0.00  0.00    -0.050 A 
ATOM      2  C2  C03 d          17.632   5.598  13.306  0.00  0.00    -0.067 A 
ATOM      3  C3  C03 d          16.372   5.042  12.592  0.00  0.00     0.005 A 
ATOM      4  C4  C03 d          15.420   4.343  13.238  0.00  0.00     0.049 A 
ATOM      5  C5  C03 d          15.567   4.112  14.646  0.00  0.00    -0.024 A 
ATOM      6  C6  C03 d          16.741   4.627  15.370  0.00  0.00     0.080 A 
ATOM      7  C10 C03 d          16.136   5.229  11.192  0.00  0.00     0.031 A 
ATOM      8  C11 C03 d          14.903   4.544  11.053  0.00  0.00     0.022 A 
ATOM      9  N12 C03 d          14.435   3.985  12.294  0.00  0.00    -0.345 N 
ATOM     10  H1  C03 d          18.631   5.742  15.211  0.00  0.00     0.087 H 
ATOM     11  H2  C03 d          18.387   6.149  12.757  0.00  0.00     0.085 H 
ATOM     12  H3  C03 d          14.807   3.553  15.181  0.00  0.00     0.091 H 
ENDROOT
BRANCH   9  13
ATOM     13  C18 C03 d          13.203   3.196  12.594  0.00  0.00     0.025 C 
ATOM     14  H7  C03 d          13.449   2.459  13.373  0.00  0.00     0.072 H 
ATOM     15  H8  C03 d          12.899   2.672  11.676  0.00  0.00     0.072 H 
BRANCH  13  16
ATOM     16  C24 C03 d          11.994   4.046  13.092  0.00  0.00    -0.016 A 
ATOM     17  C27 C03 d          11.333   4.995  12.190  0.00  0.00    -0.041 A 
ATOM     18  C28 C03 d          10.215   5.804  12.596  0.00  0.00     0.070 A 
ATOM     19  H9  C03 d          11.703   5.090  11.176  0.00  0.00     0.088 H 
ATOM     20  C29 C03 d           9.729   5.675  13.951  0.00  0.00    -0.049 A 
ATOM     21  C30 C03 d          10.343   4.760  14.867  0.00  0.00    -0.059 A 
ATOM     22  H10 C03 d           8.890   6.278  14.278  0.00  0.00     0.087 H 
ATOM     23  C31 C03 d          11.456   3.955  14.447  0.00  0.00     0.042 A 
ATOM     24  H11 C03 d           9.966   4.675  15.880  0.00  0.00     0.086 H 
ATOM     25 CL1  C03 d          12.090   2.902  15.633  0.00  0.00    -0.084 Cl
BRANCH  18  26
ATOM     26  O36 C03 d           9.657   6.671  11.604  0.00  0.00    -0.336 OA
BRANCH  26  27
ATOM     27  C37 C03 d           9.503   6.307  10.213  0.00  0.00     0.125 C 
ATOM     28  H12 C03 d           8.569   6.738   9.822  0.00  0.00     0.100 H 
BRANCH  27  29
ATOM     29  C38 C03 d           9.481   4.773  10.165  0.00  0.00    -0.042 C 
ATOM     30  H13 C03 d          10.474   4.401   9.869  0.00  0.00     0.031 H 
ATOM     31  H14 C03 d           8.731   4.439   9.433  0.00  0.00     0.031 H 
ATOM     32  H15 C03 d           9.224   4.378  11.159  0.00  0.00     0.031 H 
ENDBRANCH  27  29
BRANCH  27  33
ATOM     33  C42 C03 d          10.672   6.699   9.312  0.00  0.00     0.203 C 
ATOM     34  O44 C03 d          11.182   7.760   9.337  0.00  0.00    -0.646 OA
ATOM     35  O45 C03 d          11.039   5.698   8.487  0.00  0.00    -0.646 OA
ENDBRANCH  27  33
ENDBRANCH  26  27
ENDBRANCH  18  26
ENDBRANCH  13  16
ENDBRANCH   9  13
BRANCH   8  36
ATOM     36  C14 C03 d          14.128   4.392   9.747  0.00  0.00    -0.036 C 
ATOM     37  H4  C03 d          13.676   3.389   9.704  0.00  0.00     0.035 H 
ATOM     38  H5  C03 d          14.813   4.522   8.897  0.00  0.00     0.035 H 
ATOM     39  H6  C03 d          13.336   5.153   9.699  0.00  0.00     0.035 H 
ENDBRANCH   8  36
BRANCH   7  40
ATOM     40  C13 C03 d          17.004   5.964  10.184  0.00  0.00     0.110 A 
ATOM     41  N46 C03 d          17.963   5.528   9.304  0.00  0.00    -0.126 NA
ATOM     42  O47 C03 d          18.523   6.542   8.590  0.00  0.00    -0.212 OA
ATOM     43  C48 C03 d          17.955   7.717   8.968  0.00  0.00     0.116 A 
ATOM     44  C49 C03 d          16.986   7.385   9.964  0.00  0.00     0.032 A 
ATOM     45  C50 C03 d          18.194   9.029   8.539  0.00  0.00    -0.015 A 
ATOM     46  C53 C03 d          16.210   8.528  10.541  0.00  0.00    -0.065 A 
ATOM     47  C52 C03 d          16.440   9.857  10.118  0.00  0.00    -0.050 A 
ATOM     48  H18 C03 d          15.458   8.333  11.298  0.00  0.00     0.085 H 
ATOM     49  C51 C03 d          17.429  10.137   9.123  0.00  0.00     0.070 A 
ATOM     50  H17 C03 d          15.865  10.668  10.550  0.00  0.00     0.087 H 
ATOM     51  H16 C03 d          18.942   9.225   7.779  0.00  0.00     0.092 H 
BRANCH  49  52
ATOM     52  O57 C03 d          17.725  11.411   8.652  0.00  0.00    -0.356 OA
BRANCH  52  53
ATOM     53  C58 C03 d          18.678  11.569   7.624  0.00  0.00     0.010 C 
ATOM     54  H19 C03 d          19.359  10.706   7.619  0.00  0.00     0.066 H 
ATOM     55  H20 C03 d          19.255  12.490   7.798  0.00  0.00     0.066 H 
ATOM     56  H21 C03 d          18.163  11.637   6.654  0.00  0.00     0.066 H 
ENDBRANCH  52  53
ENDBRANCH  49  52
ENDBRANCH   7  40
BRANCH   6  57
ATOM     57  O19 C03 d          16.790   4.362  16.723  0.00  0.00    -0.255 OA
BRANCH  57  58
ATOM     58  C20 C03 d          17.846   3.659  17.327  0.00  0.00     0.530 C 
ATOM     59  F21 C03 d          17.301   2.844  18.204  0.00  0.00    -0.144 F 
ATOM     60  F22 C03 d          18.671   4.516  17.956  0.00  0.00    -0.144 F 
ATOM     61  F23 C03 d          18.502   2.955  16.412  0.00  0.00    -0.144 F 
ENDBRANCH  57  58
ENDBRANCH   6  57
TORSDOF 12
ENDMDL
MODEL 2
REMARK VINA RESULT:      -7.4      2.823      8.240
REMARK  12 active torsions:
REMARK  status: ('A' for Active; 'I' for Inactive)
REMARK    1  A    between atoms: C6_6  and  O19_13 
REMARK    2  A    between atoms: C10_7  and  C13_10 
REMARK    3  A    between atoms: C11_8  and  C14_11 
REMARK    4  A    between atoms: N12_9  and  C18_12 
REMARK    5  A    between atoms: C18_12  and  C24_18 
REMARK    6  A    between atoms: O19_13  and  C20_14 
REMARK    7  A    between atoms: C28_20  and  O36_25 
REMARK    8  A    between atoms: O36_25  and  C37_26 
REMARK    9  A    between atoms: C37_26  and  C38_27 
REMARK   10  A    between atoms: C37_26  and  C42_28 
REMARK   11  A    between atoms: C51_36  and  O57_39 
REMARK   12  A    between atoms: O57_39  and  C58_40 
ROOT
ATOM      1  C1  C03 d          14.286   5.054  15.506  0.00  0.00    -0.050 A 
ATOM      2  C2  C03 d          13.082   4.779  14.859  0.00  0.00    -0.067 A 
ATOM      3  C3  C03 d          13.048   4.862  13.310  0.00  0.00     0.005 A 
ATOM      4  C4  C03 d          14.126   5.197  12.577  0.00  0.00     0.049 A 
ATOM      5  C5  C03 d          15.360   5.479  13.251  0.00  0.00    -0.024 A 
ATOM      6  C6  C03 d          15.445   5.405  14.719  0.00  0.00     0.080 A 
ATOM      7  C10 C03 d          11.864   4.591  12.551  0.00  0.00     0.031 A 
ATOM      8  C11 C03 d          12.353   4.810  11.240  0.00  0.00     0.022 A 
ATOM      9  N12 C03 d          13.743   5.187  11.219  0.00  0.00    -0.345 N 
ATOM     10  H1  C03 d          14.351   5.005  16.586  0.00  0.00     0.087 H 
ATOM     11  H2  C03 d          12.194   4.515  15.423  0.00  0.00     0.085 H 
ATOM     12  H3  C03 d          16.238   5.748  12.674  0.00  0.00     0.091 H 
ENDROOT
BRANCH   9  13
ATOM     13  C18 C03 d          14.640   5.508  10.070  0.00  0.00     0.025 C 
ATOM     14  H7  C03 d          14.142   5.181   9.145  0.00  0.00     0.072 H 
ATOM     15  H8  C03 d          15.578   4.947  10.200  0.00  0.00     0.072 H 
BRANCH  13  16
ATOM     16  C24 C03 d          14.994   7.020   9.925  0.00  0.00    -0.016 A 
ATOM     17  C27 C03 d          16.385   7.469  10.036  0.00  0.00    -0.041 A 
ATOM     18  C28 C03 d          16.768   8.850   9.912  0.00  0.00     0.070 A 
ATOM     19  H9  C03 d          17.156   6.730  10.220  0.00  0.00     0.088 H 
ATOM     20  C29 C03 d          15.736   9.831   9.671  0.00  0.00    -0.049 A 
ATOM     21  C30 C03 d          14.362   9.438   9.555  0.00  0.00    -0.059 A 
ATOM     22  H10 C03 d          16.003  10.877   9.578  0.00  0.00     0.087 H 
ATOM     23  C31 C03 d          13.994   8.054   9.677  0.00  0.00     0.042 A 
ATOM     24  H11 C03 d          13.599  10.186   9.374  0.00  0.00     0.086 H 
ATOM     25 CL1  C03 d          12.327   7.721   9.512  0.00  0.00    -0.084 Cl
BRANCH  18  26
ATOM     26  O36 C03 d          18.166   9.140  10.021  0.00  0.00    -0.336 OA
BRANCH  26  27
ATOM     27  C37 C03 d          19.123   8.899   8.964  0.00  0.00     0.125 C 
ATOM     28  H12 C03 d          20.070   9.405   9.203  0.00  0.00     0.100 H 
BRANCH  27  29
ATOM     29  C38 C03 d          18.495   9.450   7.676  0.00  0.00    -0.042 C 
ATOM     30  H13 C03 d          17.552   8.921   7.472  0.00  0.00     0.031 H 
ATOM     31  H14 C03 d          19.190   9.299   6.836  0.00  0.00     0.031 H 
ATOM     32  H15 C03 d          18.294  10.525   7.797  0.00  0.00     0.031 H 
ENDBRANCH  27  29
BRANCH  27  33
ATOM     33  C42 C03 d          19.384   7.425   8.659  0.00  0.00     0.203 C 
ATOM     34  O44 C03 d          19.023   6.894   7.673  0.00  0.00    -0.646 OA
ATOM     35  O45 C03 d          20.062   6.811   9.649  0.00  0.00    -0.646 OA
ENDBRANCH  27  33
ENDBRANCH  26  27
ENDBRANCH  18  26
ENDBRANCH  13  16
ENDBRANCH   9  13
BRANCH   8  36
ATOM     36  C14 C03 d          11.527   4.675   9.962  0.00  0.00    -0.036 C 
ATOM     37  H4  C03 d          10.593   4.137  10.185  0.00  0.00     0.035 H 
ATOM     38  H5  C03 d          12.103   4.114   9.211  0.00  0.00     0.035 H 
ATOM     39  H6  C03 d          11.291   5.675   9.572  0.00  0.00     0.035 H 
ENDBRANCH   8  36
BRANCH   7  40
ATOM     40  C13 C03 d          10.491   4.189  13.065  0.00  0.00     0.110 A 
ATOM     41  N46 C03 d           9.224   4.443  12.602  0.00  0.00    -0.126 NA
ATOM     42  O47 C03 d           8.257   3.905  13.393  0.00  0.00    -0.212 OA
ATOM     43  C48 C03 d           8.843   3.259  14.434  0.00  0.00     0.116 A 
ATOM     44  C49 C03 d          10.252   3.411  14.251  0.00  0.00     0.032 A 
ATOM     45  C50 C03 d           8.283   2.563  15.513  0.00  0.00    -0.015 A 
ATOM     46  C53 C03 d          11.129   2.772  15.283  0.00  0.00    -0.065 A 
ATOM     47  C52 C03 d          10.577   2.066  16.376  0.00  0.00    -0.050 A 
ATOM     48  H18 C03 d          12.206   2.852  15.189  0.00  0.00     0.085 H 
ATOM     49  C51 C03 d           9.159   1.950  16.519  0.00  0.00     0.070 A 
ATOM     50  H17 C03 d          11.232   1.611  17.110  0.00  0.00     0.087 H 
ATOM     51  H16 C03 d           7.206   2.477  15.604  0.00  0.00     0.092 H 
BRANCH  49  52
ATOM     52  O57 C03 d           8.531   1.281  17.563  0.00  0.00    -0.356 OA
BRANCH  52  53
ATOM     53  C58 C03 d           9.084   0.079  18.053  0.00  0.00     0.010 C 
ATOM     54  H19 C03 d           9.834   0.308  18.825  0.00  0.00     0.066 H 
ATOM     55  H20 C03 d           9.564  -0.467  17.227  0.00  0.00     0.066 H 
ATOM     56  H21 C03 d           8.287  -0.542  18.488  0.00  0.00     0.066 H 
ENDBRANCH  52  53
ENDBRANCH  49  52
ENDBRANCH   7  40
BRANCH   6  57
ATOM     57  O19 C03 d          16.676   5.684  15.276  0.00  0.00    -0.255 OA
BRANCH  57  58
ATOM     58  C20 C03 d          17.729   4.754  15.309  0.00  0.00     0.530 C 
ATOM     59  F21 C03 d          18.635   5.244  16.129  0.00  0.00    -0.144 F 
ATOM     60  F22 C03 d          18.258   4.610  14.081  0.00  0.00    -0.144 F 
ATOM     61  F23 C03 d          17.289   3.591  15.776  0.00  0.00    -0.144 F 
ENDBRANCH  57  58
ENDBRANCH   6  57
TORSDOF 12
ENDMDL
MODEL 3
REMARK VINA RESULT:      -6.1      3.905      6.918
REMARK  12 active torsions:
REMARK  status: ('A' for Active; 'I' for Inactive)
REMARK    1  A    between atoms: C6_6  and  O19_13 
REMARK    2  A    between atoms: C10_7  and  C13_10 
REMARK    3  A    between atoms: C11_8  and  C14_11 
REMARK    4  A    between atoms: N12_9  and  C18_12 
REMARK    5  A    between atoms: C18_12  and  C24_18 
REMARK    6  A    between atoms: O19_13  and  C20_14 
REMARK    7  A    between atoms: C28_20  and  O36_25 
REMARK    8  A    between atoms: O36_25  and  C37_26 
REMARK    9  A    between atoms: C37_26  and  C38_27 
REMARK   10  A    between atoms: C37_26  and  C42_28 
REMARK   11  A    between atoms: C51_36  and  O57_39 
REMARK   12  A    between atoms: O57_39  and  C58_40 
ROOT
ATOM      1  C1  C03 d          16.343   8.087  11.424  0.00  0.00    -0.050 A 
ATOM      2  C2  C03 d          16.003   7.170  12.418  0.00  0.00    -0.067 A 
ATOM      3  C3  C03 d          14.917   6.110  12.094  0.00  0.00     0.005 A 
ATOM      4  C4  C03 d          14.290   6.053  10.905  0.00  0.00     0.049 A 
ATOM      5  C5  C03 d          14.645   7.001   9.889  0.00  0.00    -0.024 A 
ATOM      6  C6  C03 d          15.676   8.021  10.145  0.00  0.00     0.080 A 
ATOM      7  C10 C03 d          14.503   5.119  13.042  0.00  0.00     0.031 A 
ATOM      8  C11 C03 d          13.523   4.438  12.278  0.00  0.00     0.022 A 
ATOM      9  N12 C03 d          13.365   4.989  10.957  0.00  0.00    -0.345 N 
ATOM     10  H1  C03 d          17.098   8.842  11.610  0.00  0.00     0.087 H 
ATOM     11  H2  C03 d          16.485   7.197  13.389  0.00  0.00     0.085 H 
ATOM     12  H3  C03 d          14.150   6.967   8.925  0.00  0.00     0.091 H 
ENDROOT
BRANCH   9  13
ATOM     13  C18 C03 d          12.456   4.583   9.844  0.00  0.00     0.025 C 
ATOM     14  H7  C03 d          12.434   3.485   9.802  0.00  0.00     0.072 H 
ATOM     15  H8  C03 d          12.869   4.979   8.904  0.00  0.00     0.072 H 
BRANCH  13  16
ATOM     16  C24 C03 d          10.990   5.095   9.985  0.00  0.00    -0.016 A 
ATOM     17  C27 C03 d          10.462   5.481  11.297  0.00  0.00    -0.041 A 
ATOM     18  C28 C03 d           9.119   5.959  11.486  0.00  0.00     0.070 A 
ATOM     19  H9  C03 d          11.112   5.403  12.161  0.00  0.00     0.088 H 
ATOM     20  C29 C03 d           8.256   6.057  10.331  0.00  0.00    -0.049 A 
ATOM     21  C30 C03 d           8.729   5.691   9.028  0.00  0.00    -0.059 A 
ATOM     22  H10 C03 d           7.238   6.411  10.451  0.00  0.00     0.087 H 
ATOM     23  C31 C03 d          10.074   5.220   8.854  0.00  0.00     0.042 A 
ATOM     24  H11 C03 d           8.068   5.770   8.172  0.00  0.00     0.086 H 
ATOM     25 CL1  C03 d          10.512   4.824   7.251  0.00  0.00    -0.084 Cl
BRANCH  18  26
ATOM     26  O36 C03 d           8.746   6.319  12.820  0.00  0.00    -0.336 OA
BRANCH  26  27
ATOM     27  C37 C03 d           8.257   5.376  13.801  0.00  0.00     0.125 C 
ATOM     28  H12 C03 d           7.158   5.415  13.830  0.00  0.00     0.100 H 
BRANCH  27  29
ATOM     29  C38 C03 d           8.874   5.787  15.145  0.00  0.00    -0.042 C 
ATOM     30  H13 C03 d           8.195   6.482  15.663  0.00  0.00     0.031 H 
ATOM     31  H14 C03 d           9.841   6.282  14.969  0.00  0.00     0.031 H 
ATOM     32  H15 C03 d           9.028   4.893  15.767  0.00  0.00     0.031 H 
ENDBRANCH  27  29
BRANCH  27  33
ATOM     33  C42 C03 d           8.720   3.936  13.594  0.00  0.00     0.203 C 
ATOM     34  O44 C03 d           8.263   3.218  12.781  0.00  0.00    -0.646 OA
ATOM     35  O45 C03 d           9.698   3.586  14.454  0.00  0.00    -0.646 OA
ENDBRANCH  27  33
ENDBRANCH  26  27
ENDBRANCH  18  26
ENDBRANCH  13  16
ENDBRANCH   9  13
BRANCH   8  36
ATOM     36  C14 C03 d          12.701   3.249  12.768  0.00  0.00    -0.036 C 
ATOM     37  H4  C03 d          12.324   2.682  11.903  0.00  0.00     0.035 H 
ATOM     38  H5  C03 d          11.853   3.611  13.368  0.00  0.00     0.035 H 
ATOM     39  H6  C03 d          13.334   2.596  13.386  0.00  0.00     0.035 H 
ENDBRANCH   8  36
BRANCH   7  40
ATOM     40  C13 C03 d          15.007   4.909  14.460  0.00  0.00     0.110 A 
ATOM     41  N46 C03 d          14.404   5.065  15.684  0.00  0.00    -0.126 NA
ATOM     42  O47 C03 d          15.239   4.787  16.721  0.00  0.00    -0.212 OA
ATOM     43  C48 C03 d          16.453   4.428  16.230  0.00  0.00     0.116 A 
ATOM     44  C49 C03 d          16.336   4.485  14.807  0.00  0.00     0.032 A 
ATOM     45  C50 C03 d          17.635   4.062  16.886  0.00  0.00    -0.015 A 
ATOM     46  C53 C03 d          17.560   4.121  14.025  0.00  0.00    -0.065 A 
ATOM     47  C52 C03 d          18.760   3.750  14.674  0.00  0.00    -0.050 A 
ATOM     48  H18 C03 d          17.525   4.143  12.941  0.00  0.00     0.085 H 
ATOM     49  C51 C03 d          18.827   3.717  16.102  0.00  0.00     0.070 A 
ATOM     50  H17 C03 d          19.633   3.490  14.087  0.00  0.00     0.087 H 
ATOM     51  H16 C03 d          17.670   4.035  17.970  0.00  0.00     0.092 H 
BRANCH  49  52
ATOM     52  O57 C03 d          19.964   3.371  16.823  0.00  0.00    -0.356 OA
BRANCH  52  53
ATOM     53  C58 C03 d          20.233   4.011  18.051  0.00  0.00     0.010 C 
ATOM     54  H19 C03 d          21.042   4.743  17.914  0.00  0.00     0.066 H 
ATOM     55  H20 C03 d          20.539   3.262  18.796  0.00  0.00     0.066 H 
ATOM     56  H21 C03 d          19.327   4.528  18.402  0.00  0.00     0.066 H 
ENDBRANCH  52  53
ENDBRANCH  49  52
ENDBRANCH   7  40
BRANCH   6  57
ATOM     57  O19 C03 d          15.956   8.883   9.105  0.00  0.00    -0.255 OA
BRANCH  57  58
ATOM     58  C20 C03 d          15.790  10.275   9.199  0.00  0.00     0.530 C 
ATOM     59  F21 C03 d          15.712  10.726   7.965  0.00  0.00    -0.144 F 
ATOM     60  F22 C03 d          16.849  10.826   9.818  0.00  0.00    -0.144 F 
ATOM     61  F23 C03 d          14.664  10.552   9.847  0.00  0.00    -0.144 F 
ENDBRANCH  57  58
ENDBRANCH   6  57
TORSDOF 12
ENDMDL
MODEL 4
REMARK VINA RESULT:      -5.8      3.506      7.330
REMARK  12 active torsions:
REMARK  status: ('A' for Active; 'I' for Inactive)
REMARK    1  A    between atoms: C6_6  and  O19_13 
REMARK    2  A    between atoms: C10_7  and  C13_10 
REMARK    3  A    between atoms: C11_8  and  C14_11 
REMARK    4  A    between atoms: N12_9  and  C18_12 
REMARK    5  A    between atoms: C18_12  and  C24_18 
REMARK    6  A    between atoms: O19_13  and  C20_14 
REMARK    7  A    between atoms: C28_20  and  O36_25 
REMARK    8  A    between atoms: O36_25  and  C37_26 
REMARK    9  A    between atoms: C37_26  and  C38_27 
REMARK   10  A    between atoms: C37_26  and  C42_28 
REMARK   11  A    between atoms: C51_36  and  O57_39 
REMARK   12  A    between atoms: O57_39  and  C58_40 
ROOT
ATOM      1  C1  C03 d          11.859   3.818  15.244  0.00  0.00    -0.050 A 
ATOM      2  C2  C03 d          13.249   3.745  15.326  0.00  0.00    -0.067 A 
ATOM      3  C3  C03 d          14.074   4.070  14.053  0.00  0.00     0.005 A 
ATOM      4  C4  C03 d          13.502   4.406  12.882  0.00  0.00     0.049 A 
ATOM      5  C5  C03 d          12.072   4.478  12.807  0.00  0.00    -0.024 A 
ATOM      6  C6  C03 d          11.245   4.187  13.990  0.00  0.00     0.080 A 
ATOM      7  C10 C03 d          15.506   4.032  14.034  0.00  0.00     0.031 A 
ATOM      8  C11 C03 d          15.747   4.386  12.684  0.00  0.00     0.022 A 
ATOM      9  N12 C03 d          14.534   4.621  11.945  0.00  0.00    -0.345 N 
ATOM     10  H1  C03 d          11.247   3.601  16.111  0.00  0.00     0.087 H 
ATOM     11  H2  C03 d          13.738   3.469  16.253  0.00  0.00     0.085 H 
ATOM     12  H3  C03 d          11.595   4.749  11.872  0.00  0.00     0.091 H 
ENDROOT
BRANCH   9  13
ATOM     13  C18 C03 d          14.333   5.007  10.517  0.00  0.00     0.025 C 
ATOM     14  H7  C03 d          13.334   4.666  10.207  0.00  0.00     0.072 H 
ATOM     15  H8  C03 d          15.098   4.498   9.912  0.00  0.00     0.072 H 
BRANCH  13  16
ATOM     16  C24 C03 d          14.433   6.538  10.238  0.00  0.00    -0.016 A 
ATOM     17  C27 C03 d          15.650   7.277  10.588  0.00  0.00    -0.041 A 
ATOM     18  C28 C03 d          15.797   8.689  10.355  0.00  0.00     0.070 A 
ATOM     19  H9  C03 d          16.473   6.737  11.041  0.00  0.00     0.088 H 
ATOM     20  C29 C03 d          14.696   9.405   9.754  0.00  0.00    -0.049 A 
ATOM     21  C30 C03 d          13.486   8.724   9.395  0.00  0.00    -0.059 A 
ATOM     22  H10 C03 d          14.784  10.469   9.573  0.00  0.00     0.087 H 
ATOM     23  C31 C03 d          13.355   7.313   9.630  0.00  0.00     0.042 A 
ATOM     24  H11 C03 d          12.669   9.275   8.945  0.00  0.00     0.086 H 
ATOM     25 CL1  C03 d          11.867   6.624   9.151  0.00  0.00    -0.084 Cl
BRANCH  18  26
ATOM     26  O36 C03 d          17.050   9.274  10.727  0.00  0.00    -0.336 OA
BRANCH  26  27
ATOM     27  C37 C03 d          17.984   9.842   9.782  0.00  0.00     0.125 C 
ATOM     28  H12 C03 d          18.962   9.975  10.266  0.00  0.00     0.100 H 
BRANCH  27  29
ATOM     29  C38 C03 d          17.387  11.184   9.334  0.00  0.00    -0.042 C 
ATOM     30  H13 C03 d          18.062  11.661   8.606  0.00  0.00     0.031 H 
ATOM     31  H14 C03 d          17.267  11.842  10.208  0.00  0.00     0.031 H 
ATOM     32  H15 C03 d          16.407  11.012   8.866  0.00  0.00     0.031 H 
ENDBRANCH  27  29
BRANCH  27  33
ATOM     33  C42 C03 d          18.150   9.050   8.487  0.00  0.00     0.203 C 
ATOM     34  O44 C03 d          18.749   8.039   8.418  0.00  0.00    -0.646 OA
ATOM     35  O45 C03 d          17.544   9.647   7.441  0.00  0.00    -0.646 OA
ENDBRANCH  27  33
ENDBRANCH  26  27
ENDBRANCH  18  26
ENDBRANCH  13  16
ENDBRANCH   9  13
BRANCH   8  36
ATOM     36  C14 C03 d          17.128   4.510  12.044  0.00  0.00    -0.036 C 
ATOM     37  H4  C03 d          17.600   5.449  12.371  0.00  0.00     0.035 H 
ATOM     38  H5  C03 d          17.025   4.513  10.949  0.00  0.00     0.035 H 
ATOM     39  H6  C03 d          17.752   3.659  12.352  0.00  0.00     0.035 H 
ENDBRANCH   8  36
BRANCH   7  40
ATOM     40  C13 C03 d          16.450   3.694  15.176  0.00  0.00     0.110 A 
ATOM     41  N46 C03 d          16.586   2.573  15.958  0.00  0.00    -0.126 NA
ATOM     42  O47 C03 d          17.559   2.703  16.900  0.00  0.00    -0.212 OA
ATOM     43  C48 C03 d          18.126   3.933  16.787  0.00  0.00     0.116 A 
ATOM     44  C49 C03 d          17.455   4.578  15.703  0.00  0.00     0.032 A 
ATOM     45  C50 C03 d          19.150   4.540  17.524  0.00  0.00    -0.015 A 
ATOM     46  C53 C03 d          17.910   5.966  15.372  0.00  0.00    -0.065 A 
ATOM     47  C52 C03 d          18.944   6.591  16.108  0.00  0.00    -0.050 A 
ATOM     48  H18 C03 d          17.439   6.500  14.555  0.00  0.00     0.085 H 
ATOM     49  C51 C03 d          19.577   5.904  17.190  0.00  0.00     0.070 A 
ATOM     50  H17 C03 d          19.257   7.596  15.849  0.00  0.00     0.087 H 
ATOM     51  H16 C03 d          19.626   4.004  18.337  0.00  0.00     0.092 H 
BRANCH  49  52
ATOM     52  O57 C03 d          20.595   6.443  17.968  0.00  0.00    -0.356 OA
BRANCH  52  53
ATOM     53  C58 C03 d          20.630   7.834  18.203  0.00  0.00     0.010 C 
ATOM     54  H19 C03 d          20.329   8.368  17.290  0.00  0.00     0.066 H 
ATOM     55  H20 C03 d          21.651   8.132  18.483  0.00  0.00     0.066 H 
ATOM     56  H21 C03 d          19.937   8.086  19.021  0.00  0.00     0.066 H 
ENDBRANCH  52  53
ENDBRANCH  49  52
ENDBRANCH   7  40
BRANCH   6  57
ATOM     57  O19 C03 d           9.879   4.291  13.823  0.00  0.00    -0.255 OA
BRANCH  57  58
ATOM     58  C20 C03 d           9.102   5.268  14.468  0.00  0.00     0.530 C 
ATOM     59  F21 C03 d           8.284   4.624  15.273  0.00  0.00    -0.144 F 
ATOM     60  F22 C03 d           8.392   5.965  13.562  0.00  0.00    -0.144 F 
ATOM     61  F23 C03 d           9.885   6.072  15.178  0.00  0.00    -0.144 F 
ENDBRANCH  57  58
ENDBRANCH   6  57
TORSDOF 12
ENDMDL
MODEL 5
REMARK VINA RESULT:      -4.6      3.192      8.266
REMARK  12 active torsions:
REMARK  status: ('A' for Active; 'I' for Inactive)
REMARK    1  A    between atoms: C6_6  and  O19_13 
REMARK    2  A    between atoms: C10_7  and  C13_10 
REMARK    3  A    between atoms: C11_8  and  C14_11 
REMARK    4  A    between atoms: N12_9  and  C18_12 
REMARK    5  A    between atoms: C18_12  and  C24_18 
REMARK    6  A    between atoms: O19_13  and  C20_14 
REMARK    7  A    between atoms: C28_20  and  O36_25 
REMARK    8  A    between atoms: O36_25  and  C37_26 
REMARK    9  A    between atoms: C37_26  and  C38_27 
REMARK   10  A    between atoms: C37_26  and  C42_28 
REMARK   11  A    between atoms: C51_36  and  O57_39 
REMARK   12  A    between atoms: O57_39  and  C58_40 
ROOT
ATOM      1  C1  C03 d          14.340   4.452  13.222  0.00  0.00    -0.050 A 
ATOM      2  C2  C03 d          13.012   4.257  12.846  0.00  0.00    -0.067 A 
ATOM      3  C3  C03 d          12.430   5.156  11.724  0.00  0.00     0.005 A 
ATOM      4  C4  C03 d          13.151   6.114  11.113  0.00  0.00     0.049 A 
ATOM      5  C5  C03 d          14.517   6.308  11.506  0.00  0.00    -0.024 A 
ATOM      6  C6  C03 d          15.117   5.475  12.561  0.00  0.00     0.080 A 
ATOM      7  C10 C03 d          11.080   5.031  11.260  0.00  0.00     0.031 A 
ATOM      8  C11 C03 d          11.059   6.051  10.277  0.00  0.00     0.022 A 
ATOM      9  N12 C03 d          12.318   6.740  10.162  0.00  0.00    -0.345 N 
ATOM     10  H1  C03 d          14.784   3.844  14.001  0.00  0.00     0.087 H 
ATOM     11  H2  C03 d          12.403   3.499  13.326  0.00  0.00     0.085 H 
ATOM     12  H3  C03 d          15.112   7.075  11.022  0.00  0.00     0.091 H 
ENDROOT
BRANCH   9  13
ATOM     13  C18 C03 d          12.726   7.864   9.268  0.00  0.00     0.025 C 
ATOM     14  H7  C03 d          11.970   8.658   9.349  0.00  0.00     0.072 H 
ATOM     15  H8  C03 d          12.754   7.487   8.234  0.00  0.00     0.072 H 
BRANCH  13  16
ATOM     16  C24 C03 d          14.119   8.482   9.597  0.00  0.00    -0.016 A 
ATOM     17  C27 C03 d          15.285   7.616   9.798  0.00  0.00    -0.041 A 
ATOM     18  C28 C03 d          16.593   8.131  10.104  0.00  0.00     0.070 A 
ATOM     19  H9  C03 d          15.157   6.543   9.712  0.00  0.00     0.088 H 
ATOM     20  C29 C03 d          16.758   9.562  10.222  0.00  0.00    -0.049 A 
ATOM     21  C30 C03 d          15.646  10.447  10.033  0.00  0.00    -0.059 A 
ATOM     22  H10 C03 d          17.734   9.971  10.455  0.00  0.00     0.087 H 
ATOM     23  C31 C03 d          14.347   9.918   9.723  0.00  0.00     0.042 A 
ATOM     24  H11 C03 d          15.787  11.518  10.124  0.00  0.00     0.086 H 
ATOM     25 CL1  C03 d          13.112  11.080   9.517  0.00  0.00    -0.084 Cl
BRANCH  18  26
ATOM     26  O36 C03 d          17.643   7.170  10.254  0.00  0.00    -0.336 OA
BRANCH  26  27
ATOM     27  C37 C03 d          18.002   6.208   9.236  0.00  0.00     0.125 C 
ATOM     28  H12 C03 d          17.503   6.468   8.291  0.00  0.00     0.100 H 
BRANCH  27  29
ATOM     29  C38 C03 d          17.550   4.836   9.756  0.00  0.00    -0.042 C 
ATOM     30  H13 C03 d          17.389   4.890  10.843  0.00  0.00     0.031 H 
ATOM     31  H14 C03 d          18.327   4.087   9.537  0.00  0.00     0.031 H 
ATOM     32  H15 C03 d          16.612   4.546   9.261  0.00  0.00     0.031 H 
ENDBRANCH  27  29
BRANCH  27  33
ATOM     33  C42 C03 d          19.504   6.050   9.002  0.00  0.00     0.203 C 
ATOM     34  O44 C03 d          20.242   6.960   8.896  0.00  0.00    -0.646 OA
ATOM     35  O45 C03 d          19.874   4.756   8.923  0.00  0.00    -0.646 OA
ENDBRANCH  27  33
ENDBRANCH  26  27
ENDBRANCH  18  26
ENDBRANCH  13  16
ENDBRANCH   9  13
BRANCH   8  36
ATOM     36  C14 C03 d           9.851   6.412   9.416  0.00  0.00    -0.036 C 
ATOM     37  H4  C03 d           9.380   5.492   9.039  0.00  0.00     0.035 H 
ATOM     38  H5  C03 d          10.178   7.031   8.567  0.00  0.00     0.035 H 
ATOM     39  H6  C03 d           9.125   6.975  10.021  0.00  0.00     0.035 H 
ENDBRANCH   8  36
BRANCH   7  40
ATOM     40  C13 C03 d          10.013   4.058  11.732  0.00  0.00     0.110 A 
ATOM     41  N46 C03 d           9.020   3.384  11.064  0.00  0.00    -0.126 NA
ATOM     42  O47 C03 d           8.256   2.619  11.889  0.00  0.00    -0.212 OA
ATOM     43  C48 C03 d           8.709   2.750  13.163  0.00  0.00     0.116 A 
ATOM     44  C49 C03 d           9.823   3.643  13.096  0.00  0.00     0.032 A 
ATOM     45  C50 C03 d           8.256   2.181  14.359  0.00  0.00    -0.015 A 
ATOM     46  C53 C03 d          10.509   3.946  14.392  0.00  0.00    -0.065 A 
ATOM     47  C52 C03 d          10.062   3.378  15.607  0.00  0.00    -0.050 A 
ATOM     48  H18 C03 d          11.364   4.614  14.398  0.00  0.00     0.085 H 
ATOM     49  C51 C03 d           8.936   2.497  15.621  0.00  0.00     0.070 A 
ATOM     50  H17 C03 d          10.576   3.612  16.532  0.00  0.00     0.087 H 
ATOM     51  H16 C03 d           7.405   1.508  14.354  0.00  0.00     0.092 H 
BRANCH  49  52
ATOM     52  O57 C03 d           8.427   1.899  16.767  0.00  0.00    -0.356 OA
BRANCH  52  53
ATOM     53  C58 C03 d           9.298   1.217  17.644  0.00  0.00     0.010 C 
ATOM     54  H19 C03 d           9.337   0.153  17.366  0.00  0.00     0.066 H 
ATOM     55  H20 C03 d           8.929   1.313  18.675  0.00  0.00     0.066 H 
ATOM     56  H21 C03 d          10.306   1.652  17.572  0.00  0.00     0.066 H 
ENDBRANCH  52  53
ENDBRANCH  49  52
ENDBRANCH   7  40
BRANCH   6  57
ATOM     57  O19 C03 d          16.439   5.729  12.864  0.00  0.00    -0.255 OA
BRANCH  57  58
ATOM     58  C20 C03 d          17.207   4.898  13.696  0.00  0.00     0.530 C 
ATOM     59  F21 C03 d          16.681   4.985  14.899  0.00  0.00    -0.144 F 
ATOM     60  F22 C03 d          18.482   5.324  13.726  0.00  0.00    -0.144 F 
ATOM     61  F23 C03 d          17.136   3.642  13.269  0.00  0.00    -0.144 F 
ENDBRANCH  57  58
ENDBRANCH   6  57
TORSDOF 12
ENDMDL
