MODEL 1
REMARK VINA RESULT:      -9.4      0.000      0.000
REMARK  8 active torsions:
REMARK  status: ('A' for Active; 'I' for Inactive)
REMARK    1  A    between atoms: CAQ_9  and  CAL_10 
REMARK    2  A    between atoms: CAL_10  and  CAP_11 
REMARK       I    between atoms: CAP_11  and  NAM_13 
REMARK    3  A    between atoms: NAM_13  and  CAK_14 
REMARK    4  A    between atoms: CAK_14  and  CAU_15 
REMARK    5  A    between atoms: CAT_17  and  CAA_18 
REMARK    6  A    between atoms: CAV_19  and  OAC_20 
REMARK    7  A    between atoms: CAX_21  and  OAE_22 
REMARK    8  A    between atoms: CAW_23  and  OAD_24 
ROOT
ATOM      1  CAK ZX6 d          -1.870  26.130  27.167  0.00  0.00     0.024 C 
ATOM      2  H10 ZX6 d          -2.896  25.746  27.072  0.00  0.00     0.067 H 
ATOM      3  H11 ZX6 d          -1.158  25.293  27.109  0.00  0.00     0.067 H 
ENDROOT
BRANCH   1   4
ATOM      4  NAM ZX6 d          -1.739  26.739  28.502  0.00  0.00    -0.359 N 
ATOM      5  CAP ZX6 d          -2.635  26.550  29.470  0.00  0.00     0.222 C 
ATOM      6  OAB ZX6 d          -3.714  25.994  29.272  0.00  0.00    -0.273 OA
ATOM      7  H9  ZX6 d          -0.945  27.316  28.690  0.00  0.00     0.162 HD
BRANCH   5   8
ATOM      8  CAL ZX6 d          -2.381  27.175  30.846  0.00  0.00     0.035 C 
ATOM      9  H7  ZX6 d          -2.180  28.247  30.700  0.00  0.00     0.054 H 
ATOM     10  H8  ZX6 d          -3.293  27.052  31.449  0.00  0.00     0.054 H 
BRANCH   8  11
ATOM     11  CAQ ZX6 d          -1.212  26.579  31.634  0.00  0.00    -0.022 A 
ATOM     12  CAS ZX6 d          -0.780  25.258  31.679  0.00  0.00    -0.001 A 
ATOM     13  CAI ZX6 d          -1.180  24.091  31.037  0.00  0.00    -0.070 A 
ATOM     14  CAR ZX6 d           0.310  25.230  32.542  0.00  0.00     0.042 A 
ATOM     15  CAG ZX6 d          -0.487  22.904  31.258  0.00  0.00    -0.082 A 
ATOM     16  H1  ZX6 d          -2.030  24.106  30.365  0.00  0.00     0.084 H 
ATOM     17  CAF ZX6 d           0.601  22.877  32.124  0.00  0.00    -0.081 A 
ATOM     18  H2  ZX6 d          -0.797  21.997  30.753  0.00  0.00     0.083 H 
ATOM     19  CAH ZX6 d           1.000  24.044  32.770  0.00  0.00    -0.056 A 
ATOM     20  H3  ZX6 d           1.138  21.950  32.296  0.00  0.00     0.083 H 
ATOM     21  H4  ZX6 d           1.845  24.029  33.448  0.00  0.00     0.086 H 
ATOM     22  NAO ZX6 d           0.502  26.472  32.977  0.00  0.00    -0.365 N 
ATOM     23  CAJ ZX6 d          -0.410  27.277  32.434  0.00  0.00    -0.015 A 
ATOM     24  H5  ZX6 d           1.240  26.765  33.632  0.00  0.00     0.165 HD
ATOM     25  H6  ZX6 d          -0.487  28.347  32.617  0.00  0.00     0.112 H 
ENDBRANCH   8  11
ENDBRANCH   5   8
ENDBRANCH   1   4
BRANCH   1  26
ATOM     26  CAU ZX6 d          -1.604  27.052  25.972  0.00  0.00     0.144 C 
ATOM     27  NAN ZX6 d          -0.161  27.319  25.836  0.00  0.00    -0.060 N 
ATOM     28  CAT ZX6 d           0.127  28.261  24.738  0.00  0.00     0.126 C 
ATOM     29  H13 ZX6 d           0.315  26.449  25.652  0.00  0.00     0.278 HD
ATOM     30  H14 ZX6 d           0.180  27.712  26.700  0.00  0.00     0.278 HD
ATOM     31  CAV ZX6 d          -0.423  27.786  23.385  0.00  0.00     0.089 C 
ATOM     32  H15 ZX6 d          -0.351  29.222  24.979  0.00  0.00     0.087 H 
ATOM     33  CAX ZX6 d          -1.899  27.403  23.527  0.00  0.00     0.089 C 
ATOM     34  H19 ZX6 d          -0.331  28.604  22.656  0.00  0.00     0.090 H 
ATOM     35  CAW ZX6 d          -2.022  26.381  24.657  0.00  0.00     0.091 C 
ATOM     36  H21 ZX6 d          -2.485  28.301  23.773  0.00  0.00     0.091 H 
ATOM     37  H23 ZX6 d          -1.346  25.535  24.465  0.00  0.00     0.090 H 
ATOM     38  H12 ZX6 d          -2.156  27.993  26.111  0.00  0.00     0.091 H 
BRANCH  28  39
ATOM     39  CAA ZX6 d           1.637  28.477  24.638  0.00  0.00    -0.047 C 
ATOM     40  H16 ZX6 d           2.098  27.616  24.132  0.00  0.00     0.030 H 
ATOM     41  H17 ZX6 d           2.061  28.578  25.648  0.00  0.00     0.030 H 
ATOM     42  H18 ZX6 d           1.839  29.392  24.061  0.00  0.00     0.030 H 
ENDBRANCH  28  39
BRANCH  31  43
ATOM     43  OAC ZX6 d           0.316  26.655  22.914  0.00  0.00    -0.391 OA
ATOM     44  H20 ZX6 d          -0.254  25.895  22.885  0.00  0.00     0.210 HD
ENDBRANCH  31  43
BRANCH  33  45
ATOM     45  OAE ZX6 d          -2.412  26.828  22.323  0.00  0.00    -0.390 OA
ATOM     46  H22 ZX6 d          -3.248  26.415  22.501  0.00  0.00     0.210 HD
ENDBRANCH  33  45
BRANCH  35  47
ATOM     47  OAD ZX6 d          -3.367  25.898  24.675  0.00  0.00    -0.391 OA
ATOM     48  H24 ZX6 d          -3.672  25.851  25.572  0.00  0.00     0.210 HD
ENDBRANCH  35  47
ENDBRANCH   1  26
TORSDOF 8
ENDMDL
MODEL 2
REMARK VINA RESULT:      -6.6      0.967      2.245
REMARK  8 active torsions:
REMARK  status: ('A' for Active; 'I' for Inactive)
REMARK    1  A    between atoms: CAQ_9  and  CAL_10 
REMARK    2  A    between atoms: CAL_10  and  CAP_11 
REMARK       I    between atoms: CAP_11  and  NAM_13 
REMARK    3  A    between atoms: NAM_13  and  CAK_14 
REMARK    4  A    between atoms: CAK_14  and  CAU_15 
REMARK    5  A    between atoms: CAT_17  and  CAA_18 
REMARK    6  A    between atoms: CAV_19  and  OAC_20 
REMARK    7  A    between atoms: CAX_21  and  OAE_22 
REMARK    8  A    between atoms: CAW_23  and  OAD_24 
ROOT
ATOM      1  CAK ZX6 d          -2.651  26.618  27.195  0.00  0.00     0.024 C 
ATOM      2  H10 ZX6 d          -3.029  27.381  27.890  0.00  0.00     0.067 H 
ATOM      3  H11 ZX6 d          -3.494  26.030  26.802  0.00  0.00     0.067 H 
ENDROOT
BRANCH   1   4
ATOM      4  NAM ZX6 d          -1.784  25.704  27.959  0.00  0.00    -0.359 N 
ATOM      5  CAP ZX6 d          -2.208  25.040  29.034  0.00  0.00     0.222 C 
ATOM      6  OAB ZX6 d          -3.296  25.265  29.562  0.00  0.00    -0.273 OA
ATOM      7  H9  ZX6 d          -0.839  25.576  27.659  0.00  0.00     0.162 HD
BRANCH   5   8
ATOM      8  CAL ZX6 d          -1.250  24.064  29.727  0.00  0.00     0.035 C 
ATOM      9  H7  ZX6 d          -1.835  23.196  30.064  0.00  0.00     0.054 H 
ATOM     10  H8  ZX6 d          -0.504  23.738  28.987  0.00  0.00     0.054 H 
BRANCH   8  11
ATOM     11  CAQ ZX6 d          -0.499  24.627  30.936  0.00  0.00    -0.022 A 
ATOM     12  CAS ZX6 d          -0.448  25.939  31.392  0.00  0.00    -0.001 A 
ATOM     13  CAI ZX6 d          -1.052  27.124  30.988  0.00  0.00    -0.070 A 
ATOM     14  CAR ZX6 d           0.371  25.933  32.516  0.00  0.00     0.042 A 
ATOM     15  CAG ZX6 d          -0.838  28.295  31.710  0.00  0.00    -0.082 A 
ATOM     16  H1  ZX6 d          -1.690  27.136  30.111  0.00  0.00     0.084 H 
ATOM     17  CAF ZX6 d          -0.016  28.288  32.831  0.00  0.00    -0.081 A 
ATOM     18  H2  ZX6 d          -1.314  29.217  31.396  0.00  0.00     0.083 H 
ATOM     19  CAH ZX6 d           0.593  27.103  33.234  0.00  0.00    -0.056 A 
ATOM     20  H3  ZX6 d           0.151  29.202  33.390  0.00  0.00     0.083 H 
ATOM     21  H4  ZX6 d           1.237  27.092  34.106  0.00  0.00     0.086 H 
ATOM     22  NAO ZX6 d           0.776  24.680  32.703  0.00  0.00    -0.365 N 
ATOM     23  CAJ ZX6 d           0.256  23.901  31.757  0.00  0.00    -0.015 A 
ATOM     24  H5  ZX6 d           1.396  24.363  33.461  0.00  0.00     0.165 HD
ATOM     25  H6  ZX6 d           0.423  22.828  31.669  0.00  0.00     0.112 H 
ENDBRANCH   8  11
ENDBRANCH   5   8
ENDBRANCH   1   4
BRANCH   1  26
ATOM     26  CAU ZX6 d          -1.998  27.344  26.014  0.00  0.00     0.144 C 
ATOM     27  NAN ZX6 d          -0.531  27.199  26.066  0.00  0.00    -0.060 N 
ATOM     28  CAT ZX6 d           0.137  27.945  24.983  0.00  0.00     0.126 C 
ATOM     29  H13 ZX6 d          -0.298  26.221  25.980  0.00  0.00     0.278 HD
ATOM     30  H14 ZX6 d          -0.201  27.546  26.953  0.00  0.00     0.278 HD
ATOM     31  CAV ZX6 d          -0.357  27.540  23.587  0.00  0.00     0.089 C 
ATOM     32  H15 ZX6 d          -0.079  29.014  25.122  0.00  0.00     0.087 H 
ATOM     33  CAX ZX6 d          -1.887  27.584  23.540  0.00  0.00     0.089 C 
ATOM     34  H19 ZX6 d           0.047  28.248  22.847  0.00  0.00     0.090 H 
ATOM     35  CAW ZX6 d          -2.424  26.718  24.679  0.00  0.00     0.091 C 
ATOM     36  H21 ZX6 d          -2.224  28.622  23.672  0.00  0.00     0.091 H 
ATOM     37  H23 ZX6 d          -1.993  25.709  24.612  0.00  0.00     0.090 H 
ATOM     38  H12 ZX6 d          -2.278  28.407  26.042  0.00  0.00     0.091 H 
BRANCH  28  39
ATOM     39  CAA ZX6 d           1.648  27.735  25.081  0.00  0.00    -0.047 C 
ATOM     40  H16 ZX6 d           1.877  27.115  25.960  0.00  0.00     0.030 H 
ATOM     41  H17 ZX6 d           2.148  28.709  25.180  0.00  0.00     0.030 H 
ATOM     42  H18 ZX6 d           2.008  27.228  24.173  0.00  0.00     0.030 H 
ENDBRANCH  28  39
BRANCH  31  43
ATOM     43  OAC ZX6 d           0.090  26.220  23.261  0.00  0.00    -0.391 OA
ATOM     44  H20 ZX6 d          -0.637  25.719  22.909  0.00  0.00     0.210 HD
ENDBRANCH  31  43
BRANCH  33  45
ATOM     45  OAE ZX6 d          -2.390  27.084  22.300  0.00  0.00    -0.390 OA
ATOM     46  H22 ZX6 d          -2.665  27.811  21.755  0.00  0.00     0.210 HD
ENDBRANCH  33  45
BRANCH  35  47
ATOM     47  OAD ZX6 d          -3.842  26.621  24.533  0.00  0.00    -0.391 OA
ATOM     48  H24 ZX6 d          -4.080  25.718  24.364  0.00  0.00     0.210 HD
ENDBRANCH  35  47
ENDBRANCH   1  26
TORSDOF 8
ENDMDL
MODEL 3
REMARK VINA RESULT:      -6.6      2.362      7.861
REMARK  8 active torsions:
REMARK  status: ('A' for Active; 'I' for Inactive)
REMARK    1  A    between atoms: CAQ_9  and  CAL_10 
REMARK    2  A    between atoms: CAL_10  and  CAP_11 
REMARK       I    between atoms: CAP_11  and  NAM_13 
REMARK    3  A    between atoms: NAM_13  and  CAK_14 
REMARK    4  A    between atoms: CAK_14  and  CAU_15 
REMARK    5  A    between atoms: CAT_17  and  CAA_18 
REMARK    6  A    between atoms: CAV_19  and  OAC_20 
REMARK    7  A    between atoms: CAX_21  and  OAE_22 
REMARK    8  A    between atoms: CAW_23  and  OAD_24 
ROOT
ATOM      1  CAK ZX6 d          -2.706  27.228  29.905  0.00  0.00     0.024 C 
ATOM      2  H10 ZX6 d          -3.797  27.332  30.002  0.00  0.00     0.067 H 
ATOM      3  H11 ZX6 d          -2.255  28.222  29.764  0.00  0.00     0.067 H 
ENDROOT
BRANCH   1   4
ATOM      4  NAM ZX6 d          -2.437  26.436  28.692  0.00  0.00    -0.359 N 
ATOM      5  CAP ZX6 d          -2.986  26.719  27.512  0.00  0.00     0.222 C 
ATOM      6  OAB ZX6 d          -3.880  27.554  27.381  0.00  0.00    -0.273 OA
ATOM      7  H9  ZX6 d          -1.816  25.655  28.758  0.00  0.00     0.162 HD
BRANCH   5   8
ATOM      8  CAL ZX6 d          -2.596  25.874  26.293  0.00  0.00     0.035 C 
ATOM      9  H7  ZX6 d          -1.802  25.178  26.602  0.00  0.00     0.054 H 
ATOM     10  H8  ZX6 d          -3.482  25.303  25.978  0.00  0.00     0.054 H 
BRANCH   8  11
ATOM     11  CAQ ZX6 d          -2.089  26.661  25.083  0.00  0.00    -0.022 A 
ATOM     12  CAS ZX6 d          -0.868  27.305  24.915  0.00  0.00    -0.001 A 
ATOM     13  CAI ZX6 d           0.276  27.418  25.696  0.00  0.00    -0.070 A 
ATOM     14  CAR ZX6 d          -0.896  27.879  23.649  0.00  0.00     0.042 A 
ATOM     15  CAG ZX6 d           1.387  28.102  25.208  0.00  0.00    -0.082 A 
ATOM     16  H1  ZX6 d           0.304  26.975  26.685  0.00  0.00     0.084 H 
ATOM     17  CAF ZX6 d           1.356  28.678  23.943  0.00  0.00    -0.081 A 
ATOM     18  H2  ZX6 d           2.280  28.185  25.817  0.00  0.00     0.083 H 
ATOM     19  CAH ZX6 d           0.209  28.568  23.161  0.00  0.00    -0.056 A 
ATOM     20  H3  ZX6 d           2.222  29.211  23.566  0.00  0.00     0.083 H 
ATOM     21  H4  ZX6 d           0.178  29.017  22.175  0.00  0.00     0.086 H 
ATOM     22  NAO ZX6 d          -2.074  27.585  23.108  0.00  0.00    -0.365 N 
ATOM     23  CAJ ZX6 d          -2.787  26.858  23.967  0.00  0.00    -0.015 A 
ATOM     24  H5  ZX6 d          -2.387  27.874  22.170  0.00  0.00     0.165 HD
ATOM     25  H6  ZX6 d          -3.791  26.480  23.783  0.00  0.00     0.112 H 
ENDBRANCH   8  11
ENDBRANCH   5   8
ENDBRANCH   1   4
BRANCH   1  26
ATOM     26  CAU ZX6 d          -2.173  26.655  31.222  0.00  0.00     0.144 C 
ATOM     27  NAN ZX6 d          -2.189  25.181  31.188  0.00  0.00    -0.060 N 
ATOM     28  CAT ZX6 d          -1.747  24.593  32.467  0.00  0.00     0.126 C 
ATOM     29  H13 ZX6 d          -1.572  24.866  30.455  0.00  0.00     0.278 HD
ATOM     30  H14 ZX6 d          -3.128  24.870  30.994  0.00  0.00     0.278 HD
ATOM     31  CAV ZX6 d          -0.350  25.069  32.891  0.00  0.00     0.089 C 
ATOM     32  H15 ZX6 d          -2.461  24.898  33.246  0.00  0.00     0.087 H 
ATOM     33  CAX ZX6 d          -0.278  26.597  32.834  0.00  0.00     0.089 C 
ATOM     34  H19 ZX6 d          -0.159  24.737  33.923  0.00  0.00     0.090 H 
ATOM     35  CAW ZX6 d          -0.704  27.044  31.436  0.00  0.00     0.091 C 
ATOM     36  H21 ZX6 d          -0.964  27.020  33.583  0.00  0.00     0.091 H 
ATOM     37  H23 ZX6 d          -0.092  26.529  30.682  0.00  0.00     0.090 H 
ATOM     38  H12 ZX6 d          -2.789  27.025  32.055  0.00  0.00     0.091 H 
BRANCH  28  39
ATOM     39  CAA ZX6 d          -1.766  23.068  32.357  0.00  0.00    -0.047 C 
ATOM     40  H16 ZX6 d          -2.791  22.728  32.150  0.00  0.00     0.030 H 
ATOM     41  H17 ZX6 d          -1.417  22.628  33.303  0.00  0.00     0.030 H 
ATOM     42  H18 ZX6 d          -1.103  22.752  31.537  0.00  0.00     0.030 H 
ENDBRANCH  28  39
BRANCH  31  43
ATOM     43  OAC ZX6 d           0.650  24.515  32.030  0.00  0.00    -0.391 OA
ATOM     44  H20 ZX6 d           0.995  25.199  31.468  0.00  0.00     0.210 HD
ENDBRANCH  31  43
BRANCH  33  45
ATOM     45  OAE ZX6 d           1.045  27.072  33.091  0.00  0.00    -0.390 OA
ATOM     46  H22 ZX6 d           1.253  26.943  34.009  0.00  0.00     0.210 HD
ENDBRANCH  33  45
BRANCH  35  47
ATOM     47  OAD ZX6 d          -0.474  28.450  31.330  0.00  0.00    -0.391 OA
ATOM     48  H24 ZX6 d           0.374  28.660  31.702  0.00  0.00     0.210 HD
ENDBRANCH  35  47
ENDBRANCH   1  26
TORSDOF 8
ENDMDL
